[General]
network = TSN_multipath
sim-time-limit = 100ms
*.macForwardingTableConfigurator.typename = ""
*.*.hasStreamRedundancy = true
*.*.bridging.streamRelay.typename = "StreamRelayLayer"
*.*.bridging.streamCoder.typename = "StreamCoderLayer"
*.streamRedundancyConfigurator.typename = "StreamRedundancyConfigurator"
*.host0.eth[0].bitrate = 1000Mbps
*.switch0.eth[0].bitrate = 1000Mbps
*.switch0.eth[1].bitrate = 1500Mbps
*.switch0.eth[2].bitrate = 2300Mbps
*.switch0.eth[3].bitrate = 2400Mbps
*.host1.eth[0].bitrate = 1000Mbps
*.switch1.eth[0].bitrate = 1000Mbps
*.switch1.eth[1].bitrate = 2300Mbps
*.switch1.eth[2].bitrate = 2300Mbps
*.switch1.eth[3].bitrate = 1300Mbps
*.switch1.eth[4].bitrate = 2300Mbps
*.switch1.eth[5].bitrate = 2200Mbps
*.host2.eth[0].bitrate = 1000Mbps
*.switch2.eth[0].bitrate = 1000Mbps
*.switch2.eth[1].bitrate = 1500Mbps
*.switch2.eth[2].bitrate = 2400Mbps
*.switch2.eth[3].bitrate = 2300Mbps
*.switch2.eth[4].bitrate = 2100Mbps
*.switch2.eth[5].bitrate = 2000Mbps
*.switch2.eth[6].bitrate = 1300Mbps
*.host3.eth[0].bitrate = 1000Mbps
*.switch3.eth[0].bitrate = 1000Mbps
*.switch3.eth[1].bitrate = 2300Mbps
*.switch3.eth[2].bitrate = 2200Mbps
*.switch3.eth[3].bitrate = 2000Mbps
*.switch3.eth[4].bitrate = 2000Mbps
*.host4.eth[0].bitrate = 1000Mbps
*.switch4.eth[0].bitrate = 1000Mbps
*.switch4.eth[1].bitrate = 1300Mbps
*.switch4.eth[2].bitrate = 2100Mbps
*.switch4.eth[3].bitrate = 2000Mbps
*.switch4.eth[4].bitrate = 1300Mbps
*.host0.numApps = 6
*.host0.app[0].typename = "UdpBasicApp"
*.host0.app[0].destAddresses = "host4"
*.host0.app[0].source.packetNameFormat = "%M-%m-%c"
*.host0.app[0].source.displayStringTextFormat = "sent %p pk (%l)"
*.host0.app[0].messageLength = 13B
*.host0.app[0].sendInterval = 1ms
*.host0.app[0].startTime = 0ms
*.host0.app[0].stopTime = 6ms
*.host0.app[0].display-name = "type2_2"
*.host0.app[0].destPort = 1000
*.host0.app[1].typename = "UdpBasicApp"
*.host0.app[1].destAddresses = "host4"
*.host0.app[1].source.packetNameFormat = "%M-%m-%c"
*.host0.app[1].source.displayStringTextFormat = "sent %p pk (%l)"
*.host0.app[1].messageLength = 13B
*.host0.app[1].sendInterval = 1ms
*.host0.app[1].startTime = 10ms
*.host0.app[1].stopTime = 15ms
*.host0.app[1].display-name = "type2_2"
*.host0.app[1].destPort = 1000
*.host0.app[2].typename = "UdpBasicApp"
*.host0.app[2].destAddresses = "host4"
*.host0.app[2].source.packetNameFormat = "%M-%m-%c"
*.host0.app[2].source.displayStringTextFormat = "sent %p pk (%l)"
*.host0.app[2].messageLength = 13B
*.host0.app[2].sendInterval = 1ms
*.host0.app[2].startTime = 33ms
*.host0.app[2].stopTime = 35ms
*.host0.app[2].display-name = "type2_2"
*.host0.app[2].destPort = 1000
*.host0.app[3].typename = "UdpBasicApp"
*.host0.app[3].destAddresses = "host4"
*.host0.app[3].source.packetNameFormat = "%M-%m-%c"
*.host0.app[3].source.displayStringTextFormat = "sent %p pk (%l)"
*.host0.app[3].messageLength = 13B
*.host0.app[3].sendInterval = 1ms
*.host0.app[3].startTime = 47ms
*.host0.app[3].stopTime = 64ms
*.host0.app[3].display-name = "type2_2"
*.host0.app[3].destPort = 1000
*.host0.app[4].typename = "UdpBasicApp"
*.host0.app[4].destAddresses = "host4"
*.host0.app[4].source.packetNameFormat = "%M-%m-%c"
*.host0.app[4].source.displayStringTextFormat = "sent %p pk (%l)"
*.host0.app[4].messageLength = 13B
*.host0.app[4].sendInterval = 1ms
*.host0.app[4].startTime = 80ms
*.host0.app[4].stopTime = 93ms
*.host0.app[4].display-name = "type2_2"
*.host0.app[4].destPort = 1000
*.host0.app[5].typename = "UdpBasicApp"
*.host0.app[5].destAddresses = "host4"
*.host0.app[5].source.packetNameFormat = "%M-%m-%c"
*.host0.app[5].source.displayStringTextFormat = "sent %p pk (%l)"
*.host0.app[5].messageLength = 13B
*.host0.app[5].sendInterval = 1ms
*.host0.app[5].startTime = 96ms
*.host0.app[5].stopTime = 97ms
*.host0.app[5].display-name = "type2_2"
*.host0.app[5].destPort = 1000
*.host1.numApps = 7
*.host1.app[0].typename = "UdpBasicApp"
*.host1.app[0].destAddresses = "host2"
*.host1.app[0].source.packetNameFormat = "%M-%m-%c"
*.host1.app[0].source.displayStringTextFormat = "sent %p pk (%l)"
*.host1.app[0].messageLength = 24B
*.host1.app[0].sendInterval = 1ms
*.host1.app[0].startTime = 2ms
*.host1.app[0].stopTime = 15ms
*.host1.app[0].display-name = "type2_0"
*.host1.app[0].destPort = 1000
*.host1.app[1].typename = "UdpBasicApp"
*.host1.app[1].destAddresses = "host2"
*.host1.app[1].source.packetNameFormat = "%M-%m-%c"
*.host1.app[1].source.displayStringTextFormat = "sent %p pk (%l)"
*.host1.app[1].messageLength = 24B
*.host1.app[1].sendInterval = 1ms
*.host1.app[1].startTime = 25ms
*.host1.app[1].stopTime = 39ms
*.host1.app[1].display-name = "type2_0"
*.host1.app[1].destPort = 1000
*.host1.app[2].typename = "UdpBasicApp"
*.host1.app[2].destAddresses = "host2"
*.host1.app[2].source.packetNameFormat = "%M-%m-%c"
*.host1.app[2].source.displayStringTextFormat = "sent %p pk (%l)"
*.host1.app[2].messageLength = 24B
*.host1.app[2].sendInterval = 1ms
*.host1.app[2].startTime = 41ms
*.host1.app[2].stopTime = 49ms
*.host1.app[2].display-name = "type2_0"
*.host1.app[2].destPort = 1000
*.host1.app[3].typename = "UdpBasicApp"
*.host1.app[3].destAddresses = "host2"
*.host1.app[3].source.packetNameFormat = "%M-%m-%c"
*.host1.app[3].source.displayStringTextFormat = "sent %p pk (%l)"
*.host1.app[3].messageLength = 24B
*.host1.app[3].sendInterval = 1ms
*.host1.app[3].startTime = 53ms
*.host1.app[3].stopTime = 57ms
*.host1.app[3].display-name = "type2_0"
*.host1.app[3].destPort = 1000
*.host1.app[4].typename = "UdpBasicApp"
*.host1.app[4].destAddresses = "host2"
*.host1.app[4].source.packetNameFormat = "%M-%m-%c"
*.host1.app[4].source.displayStringTextFormat = "sent %p pk (%l)"
*.host1.app[4].messageLength = 24B
*.host1.app[4].sendInterval = 1ms
*.host1.app[4].startTime = 59ms
*.host1.app[4].stopTime = 67ms
*.host1.app[4].display-name = "type2_0"
*.host1.app[4].destPort = 1000
*.host1.app[5].typename = "UdpBasicApp"
*.host1.app[5].destAddresses = "host2"
*.host1.app[5].source.packetNameFormat = "%M-%m-%c"
*.host1.app[5].source.displayStringTextFormat = "sent %p pk (%l)"
*.host1.app[5].messageLength = 24B
*.host1.app[5].sendInterval = 1ms
*.host1.app[5].startTime = 78ms
*.host1.app[5].stopTime = 89ms
*.host1.app[5].display-name = "type2_0"
*.host1.app[5].destPort = 1000
*.host1.app[6].typename = "UdpBasicApp"
*.host1.app[6].destAddresses = "host2"
*.host1.app[6].source.packetNameFormat = "%M-%m-%c"
*.host1.app[6].source.displayStringTextFormat = "sent %p pk (%l)"
*.host1.app[6].messageLength = 24B
*.host1.app[6].sendInterval = 1ms
*.host1.app[6].startTime = 93ms
*.host1.app[6].stopTime = 100ms
*.host1.app[6].display-name = "type2_0"
*.host1.app[6].destPort = 1000
*.host2.numApps = 3
*.host2.app[0].typename = "UdpSourceApp"
*.host2.app[0].io.destAddress = "host3"
*.host2.app[0].source.packetNameFormat = "%M-%m-%c"
*.host2.app[0].source.displayStringTextFormat = "sent %p pk (%l)"
*.host2.app[0].source.packetLength = 19B
*.host2.app[0].source.productionInterval = 1ms
*.host2.app[0].display-name = "type1_0"
*.host2.app[0].io.destPort = 1000
*.host2.app[1].typename = "UdpSinkApp"
*.host2.app[1].io.localPort = 1000
*.host2.app[2].typename = "UdpSinkApp"
*.host2.app[2].io.localPort = 1001
*.host3.numApps = 7
*.host3.app[0].typename = "UdpSinkApp"
*.host3.app[0].io.localPort = 1000
*.host3.app[1].typename = "UdpBasicApp"
*.host3.app[1].destAddresses = "host2"
*.host3.app[1].source.packetNameFormat = "%M-%m-%c"
*.host3.app[1].source.displayStringTextFormat = "sent %p pk (%l)"
*.host3.app[1].messageLength = 14B
*.host3.app[1].sendInterval = 1ms
*.host3.app[1].startTime = 3ms
*.host3.app[1].stopTime = 9ms
*.host3.app[1].display-name = "type2_1"
*.host3.app[1].destPort = 1001
*.host3.app[2].typename = "UdpBasicApp"
*.host3.app[2].destAddresses = "host2"
*.host3.app[2].source.packetNameFormat = "%M-%m-%c"
*.host3.app[2].source.displayStringTextFormat = "sent %p pk (%l)"
*.host3.app[2].messageLength = 14B
*.host3.app[2].sendInterval = 1ms
*.host3.app[2].startTime = 34ms
*.host3.app[2].stopTime = 35ms
*.host3.app[2].display-name = "type2_1"
*.host3.app[2].destPort = 1001
*.host3.app[3].typename = "UdpBasicApp"
*.host3.app[3].destAddresses = "host2"
*.host3.app[3].source.packetNameFormat = "%M-%m-%c"
*.host3.app[3].source.displayStringTextFormat = "sent %p pk (%l)"
*.host3.app[3].messageLength = 14B
*.host3.app[3].sendInterval = 1ms
*.host3.app[3].startTime = 38ms
*.host3.app[3].stopTime = 45ms
*.host3.app[3].display-name = "type2_1"
*.host3.app[3].destPort = 1001
*.host3.app[4].typename = "UdpBasicApp"
*.host3.app[4].destAddresses = "host2"
*.host3.app[4].source.packetNameFormat = "%M-%m-%c"
*.host3.app[4].source.displayStringTextFormat = "sent %p pk (%l)"
*.host3.app[4].messageLength = 14B
*.host3.app[4].sendInterval = 1ms
*.host3.app[4].startTime = 46ms
*.host3.app[4].stopTime = 56ms
*.host3.app[4].display-name = "type2_1"
*.host3.app[4].destPort = 1001
*.host3.app[5].typename = "UdpBasicApp"
*.host3.app[5].destAddresses = "host2"
*.host3.app[5].source.packetNameFormat = "%M-%m-%c"
*.host3.app[5].source.displayStringTextFormat = "sent %p pk (%l)"
*.host3.app[5].messageLength = 14B
*.host3.app[5].sendInterval = 1ms
*.host3.app[5].startTime = 72ms
*.host3.app[5].stopTime = 84ms
*.host3.app[5].display-name = "type2_1"
*.host3.app[5].destPort = 1001
*.host3.app[6].typename = "UdpBasicApp"
*.host3.app[6].destAddresses = "host2"
*.host3.app[6].source.packetNameFormat = "%M-%m-%c"
*.host3.app[6].source.displayStringTextFormat = "sent %p pk (%l)"
*.host3.app[6].messageLength = 14B
*.host3.app[6].sendInterval = 1ms
*.host3.app[6].startTime = 87ms
*.host3.app[6].stopTime = 89ms
*.host3.app[6].display-name = "type2_1"
*.host3.app[6].destPort = 1001
*.host4.numApps = 1
*.host4.app[0].typename = "UdpSinkApp"
*.host4.app[0].io.localPort = 1000
*.streamRedundancyConfigurator.configuration = [
	{
		name: "S1-0",
		packetFilter: "*-type1_0-*",
		source: "host2",
		destination: "host3",
		trees: [[["host2", "switch2", "switch1", "switch3", "host3"]]]
	},
	{
		name: "S2-0",
		packetFilter: "*-type2_0-*",
		source: "host1",
		destination: "host2",
		trees: [[["host1", "switch1", "switch0", "switch2", "host2"]]]
	},
	{
		name: "S2-1",
		packetFilter: "*-type2_1-*",
		source: "host3",
		destination: "host2",
		trees: [[["host3", "switch3", "switch4", "switch2", "host2"]]]
	},
	{
		name: "S2-2",
		packetFilter: "*-type2_2-*",
		source: "host0",
		destination: "host4",
		trees: [[["host0", "switch0", "switch2", "switch1", "switch3", "switch4", "host4"]]]
	}]
	

