[General]
network = TSN_multipath
sim-time-limit = 10ms
*.macForwardingTableConfigurator.typename = ""
*.*.hasStreamRedundancy = true
*.*.bridging.streamRelay.typename = "StreamRelayLayer"
*.*.bridging.streamCoder.typename = "StreamCoderLayer"
*.streamRedundancyConfigurator.typename = "StreamRedundancyConfigurator"
*.host0.eth[0].bitrate = 1000Mbps
*.switch0.eth[0].bitrate = 1000Mbps
*.switch0.eth[1].bitrate = 2000Mbps
*.switch0.eth[2].bitrate = 1400Mbps
*.switch0.eth[3].bitrate = 1800Mbps
*.switch0.eth[4].bitrate = 2200Mbps
*.host1.eth[0].bitrate = 1000Mbps
*.switch1.eth[0].bitrate = 1000Mbps
*.switch1.eth[1].bitrate = 2000Mbps
*.switch1.eth[2].bitrate = 1600Mbps
*.switch1.eth[3].bitrate = 2400Mbps
*.switch1.eth[4].bitrate = 1600Mbps
*.host2.eth[0].bitrate = 1000Mbps
*.switch2.eth[0].bitrate = 1000Mbps
*.switch2.eth[1].bitrate = 1800Mbps
*.switch2.eth[2].bitrate = 1700Mbps
*.switch2.eth[3].bitrate = 2000Mbps
*.switch2.eth[4].bitrate = 1300Mbps
*.switch2.eth[5].bitrate = 1500Mbps
*.host3.eth[0].bitrate = 1000Mbps
*.switch3.eth[0].bitrate = 1000Mbps
*.switch3.eth[1].bitrate = 1600Mbps
*.switch3.eth[2].bitrate = 1700Mbps
*.switch3.eth[3].bitrate = 2400Mbps
*.switch3.eth[4].bitrate = 1300Mbps
*.host4.eth[0].bitrate = 1000Mbps
*.switch4.eth[0].bitrate = 1000Mbps
*.switch4.eth[1].bitrate = 1400Mbps
*.switch4.eth[2].bitrate = 2000Mbps
*.switch4.eth[3].bitrate = 2200Mbps
*.switch4.eth[4].bitrate = 1600Mbps
*.switch4.eth[5].bitrate = 1500Mbps
*.host0.numApps = 0
*.host1.numApps = 10
*.host1.app[0].typename = "UdpSinkApp"
*.host1.app[0].io.localPort = 1000
*.host1.app[1].typename = "UdpBasicApp"
*.host1.app[1].destAddresses = "host2"
*.host1.app[1].source.packetNameFormat = "%M-%m-%c"
*.host1.app[1].source.displayStringTextFormat = "sent %p pk (%l)"
*.host1.app[1].messageLength = 21B
*.host1.app[1].sendInterval = 1ms
*.host1.app[1].startTime = 700us
*.host1.app[1].stopTime = 1000us
*.host1.app[1].display-name = "type2_1"
*.host1.app[1].destPort = 1001
*.host1.app[2].typename = "UdpBasicApp"
*.host1.app[2].destAddresses = "host2"
*.host1.app[2].source.packetNameFormat = "%M-%m-%c"
*.host1.app[2].source.displayStringTextFormat = "sent %p pk (%l)"
*.host1.app[2].messageLength = 21B
*.host1.app[2].sendInterval = 1ms
*.host1.app[2].startTime = 2200us
*.host1.app[2].stopTime = 2300us
*.host1.app[2].display-name = "type2_1"
*.host1.app[2].destPort = 1001
*.host1.app[3].typename = "UdpBasicApp"
*.host1.app[3].destAddresses = "host2"
*.host1.app[3].source.packetNameFormat = "%M-%m-%c"
*.host1.app[3].source.displayStringTextFormat = "sent %p pk (%l)"
*.host1.app[3].messageLength = 21B
*.host1.app[3].sendInterval = 1ms
*.host1.app[3].startTime = 2500us
*.host1.app[3].stopTime = 2800us
*.host1.app[3].display-name = "type2_1"
*.host1.app[3].destPort = 1001
*.host1.app[4].typename = "UdpBasicApp"
*.host1.app[4].destAddresses = "host2"
*.host1.app[4].source.packetNameFormat = "%M-%m-%c"
*.host1.app[4].source.displayStringTextFormat = "sent %p pk (%l)"
*.host1.app[4].messageLength = 21B
*.host1.app[4].sendInterval = 1ms
*.host1.app[4].startTime = 2900us
*.host1.app[4].stopTime = 3200us
*.host1.app[4].display-name = "type2_1"
*.host1.app[4].destPort = 1001
*.host1.app[5].typename = "UdpBasicApp"
*.host1.app[5].destAddresses = "host2"
*.host1.app[5].source.packetNameFormat = "%M-%m-%c"
*.host1.app[5].source.displayStringTextFormat = "sent %p pk (%l)"
*.host1.app[5].messageLength = 21B
*.host1.app[5].sendInterval = 1ms
*.host1.app[5].startTime = 3600us
*.host1.app[5].stopTime = 4100us
*.host1.app[5].display-name = "type2_1"
*.host1.app[5].destPort = 1001
*.host1.app[6].typename = "UdpBasicApp"
*.host1.app[6].destAddresses = "host2"
*.host1.app[6].source.packetNameFormat = "%M-%m-%c"
*.host1.app[6].source.displayStringTextFormat = "sent %p pk (%l)"
*.host1.app[6].messageLength = 21B
*.host1.app[6].sendInterval = 1ms
*.host1.app[6].startTime = 5800us
*.host1.app[6].stopTime = 6600us
*.host1.app[6].display-name = "type2_1"
*.host1.app[6].destPort = 1001
*.host1.app[7].typename = "UdpBasicApp"
*.host1.app[7].destAddresses = "host2"
*.host1.app[7].source.packetNameFormat = "%M-%m-%c"
*.host1.app[7].source.displayStringTextFormat = "sent %p pk (%l)"
*.host1.app[7].messageLength = 21B
*.host1.app[7].sendInterval = 1ms
*.host1.app[7].startTime = 7100us
*.host1.app[7].stopTime = 8300us
*.host1.app[7].display-name = "type2_1"
*.host1.app[7].destPort = 1001
*.host1.app[8].typename = "UdpBasicApp"
*.host1.app[8].destAddresses = "host2"
*.host1.app[8].source.packetNameFormat = "%M-%m-%c"
*.host1.app[8].source.displayStringTextFormat = "sent %p pk (%l)"
*.host1.app[8].messageLength = 21B
*.host1.app[8].sendInterval = 1ms
*.host1.app[8].startTime = 9700us
*.host1.app[8].stopTime = 10000us
*.host1.app[8].display-name = "type2_1"
*.host1.app[8].destPort = 1001
*.host1.app[9].typename = "UdpSinkApp"
*.host1.app[9].io.localPort = 1001
*.host2.numApps = 2
*.host2.app[0].typename = "UdpSinkApp"
*.host2.app[0].io.localPort = 1000
*.host2.app[1].typename = "UdpSinkApp"
*.host2.app[1].io.localPort = 1001
*.host3.numApps = 7
*.host3.app[0].typename = "UdpBasicApp"
*.host3.app[0].destAddresses = "host1"
*.host3.app[0].source.packetNameFormat = "%M-%m-%c"
*.host3.app[0].source.displayStringTextFormat = "sent %p pk (%l)"
*.host3.app[0].messageLength = 17B
*.host3.app[0].sendInterval = 1ms
*.host3.app[0].startTime = 300us
*.host3.app[0].stopTime = 700us
*.host3.app[0].display-name = "type2_0"
*.host3.app[0].destPort = 1000
*.host3.app[1].typename = "UdpBasicApp"
*.host3.app[1].destAddresses = "host1"
*.host3.app[1].source.packetNameFormat = "%M-%m-%c"
*.host3.app[1].source.displayStringTextFormat = "sent %p pk (%l)"
*.host3.app[1].messageLength = 17B
*.host3.app[1].sendInterval = 1ms
*.host3.app[1].startTime = 800us
*.host3.app[1].stopTime = 1100us
*.host3.app[1].display-name = "type2_0"
*.host3.app[1].destPort = 1000
*.host3.app[2].typename = "UdpBasicApp"
*.host3.app[2].destAddresses = "host1"
*.host3.app[2].source.packetNameFormat = "%M-%m-%c"
*.host3.app[2].source.displayStringTextFormat = "sent %p pk (%l)"
*.host3.app[2].messageLength = 17B
*.host3.app[2].sendInterval = 1ms
*.host3.app[2].startTime = 1900us
*.host3.app[2].stopTime = 2000us
*.host3.app[2].display-name = "type2_0"
*.host3.app[2].destPort = 1000
*.host3.app[3].typename = "UdpBasicApp"
*.host3.app[3].destAddresses = "host1"
*.host3.app[3].source.packetNameFormat = "%M-%m-%c"
*.host3.app[3].source.displayStringTextFormat = "sent %p pk (%l)"
*.host3.app[3].messageLength = 17B
*.host3.app[3].sendInterval = 1ms
*.host3.app[3].startTime = 2400us
*.host3.app[3].stopTime = 3400us
*.host3.app[3].display-name = "type2_0"
*.host3.app[3].destPort = 1000
*.host3.app[4].typename = "UdpBasicApp"
*.host3.app[4].destAddresses = "host1"
*.host3.app[4].source.packetNameFormat = "%M-%m-%c"
*.host3.app[4].source.displayStringTextFormat = "sent %p pk (%l)"
*.host3.app[4].messageLength = 17B
*.host3.app[4].sendInterval = 1ms
*.host3.app[4].startTime = 3900us
*.host3.app[4].stopTime = 4100us
*.host3.app[4].display-name = "type2_0"
*.host3.app[4].destPort = 1000
*.host3.app[5].typename = "UdpBasicApp"
*.host3.app[5].destAddresses = "host1"
*.host3.app[5].source.packetNameFormat = "%M-%m-%c"
*.host3.app[5].source.displayStringTextFormat = "sent %p pk (%l)"
*.host3.app[5].messageLength = 17B
*.host3.app[5].sendInterval = 1ms
*.host3.app[5].startTime = 4600us
*.host3.app[5].stopTime = 7400us
*.host3.app[5].display-name = "type2_0"
*.host3.app[5].destPort = 1000
*.host3.app[6].typename = "UdpBasicApp"
*.host3.app[6].destAddresses = "host1"
*.host3.app[6].source.packetNameFormat = "%M-%m-%c"
*.host3.app[6].source.displayStringTextFormat = "sent %p pk (%l)"
*.host3.app[6].messageLength = 17B
*.host3.app[6].sendInterval = 1ms
*.host3.app[6].startTime = 8100us
*.host3.app[6].stopTime = 10000us
*.host3.app[6].display-name = "type2_0"
*.host3.app[6].destPort = 1000
*.host4.numApps = 8
*.host4.app[0].typename = "UdpSourceApp"
*.host4.app[0].io.destAddress = "host2"
*.host4.app[0].source.packetNameFormat = "%M-%m-%c"
*.host4.app[0].source.displayStringTextFormat = "sent %p pk (%l)"
*.host4.app[0].source.packetLength = 22B
*.host4.app[0].source.productionInterval = 1ms
*.host4.app[0].display-name = "type1_0"
*.host4.app[0].io.destPort = 1000
*.host4.app[1].typename = "UdpBasicApp"
*.host4.app[1].destAddresses = "host1"
*.host4.app[1].source.packetNameFormat = "%M-%m-%c"
*.host4.app[1].source.displayStringTextFormat = "sent %p pk (%l)"
*.host4.app[1].messageLength = 16B
*.host4.app[1].sendInterval = 1ms
*.host4.app[1].startTime = 300us
*.host4.app[1].stopTime = 1000us
*.host4.app[1].display-name = "type2_2"
*.host4.app[1].destPort = 1001
*.host4.app[2].typename = "UdpBasicApp"
*.host4.app[2].destAddresses = "host1"
*.host4.app[2].source.packetNameFormat = "%M-%m-%c"
*.host4.app[2].source.displayStringTextFormat = "sent %p pk (%l)"
*.host4.app[2].messageLength = 16B
*.host4.app[2].sendInterval = 1ms
*.host4.app[2].startTime = 1100us
*.host4.app[2].stopTime = 1300us
*.host4.app[2].display-name = "type2_2"
*.host4.app[2].destPort = 1001
*.host4.app[3].typename = "UdpBasicApp"
*.host4.app[3].destAddresses = "host1"
*.host4.app[3].source.packetNameFormat = "%M-%m-%c"
*.host4.app[3].source.displayStringTextFormat = "sent %p pk (%l)"
*.host4.app[3].messageLength = 16B
*.host4.app[3].sendInterval = 1ms
*.host4.app[3].startTime = 1900us
*.host4.app[3].stopTime = 2000us
*.host4.app[3].display-name = "type2_2"
*.host4.app[3].destPort = 1001
*.host4.app[4].typename = "UdpBasicApp"
*.host4.app[4].destAddresses = "host1"
*.host4.app[4].source.packetNameFormat = "%M-%m-%c"
*.host4.app[4].source.displayStringTextFormat = "sent %p pk (%l)"
*.host4.app[4].messageLength = 16B
*.host4.app[4].sendInterval = 1ms
*.host4.app[4].startTime = 2600us
*.host4.app[4].stopTime = 3000us
*.host4.app[4].display-name = "type2_2"
*.host4.app[4].destPort = 1001
*.host4.app[5].typename = "UdpBasicApp"
*.host4.app[5].destAddresses = "host1"
*.host4.app[5].source.packetNameFormat = "%M-%m-%c"
*.host4.app[5].source.displayStringTextFormat = "sent %p pk (%l)"
*.host4.app[5].messageLength = 16B
*.host4.app[5].sendInterval = 1ms
*.host4.app[5].startTime = 5100us
*.host4.app[5].stopTime = 7100us
*.host4.app[5].display-name = "type2_2"
*.host4.app[5].destPort = 1001
*.host4.app[6].typename = "UdpBasicApp"
*.host4.app[6].destAddresses = "host1"
*.host4.app[6].source.packetNameFormat = "%M-%m-%c"
*.host4.app[6].source.displayStringTextFormat = "sent %p pk (%l)"
*.host4.app[6].messageLength = 16B
*.host4.app[6].sendInterval = 1ms
*.host4.app[6].startTime = 8000us
*.host4.app[6].stopTime = 9000us
*.host4.app[6].display-name = "type2_2"
*.host4.app[6].destPort = 1001
*.host4.app[7].typename = "UdpBasicApp"
*.host4.app[7].destAddresses = "host1"
*.host4.app[7].source.packetNameFormat = "%M-%m-%c"
*.host4.app[7].source.displayStringTextFormat = "sent %p pk (%l)"
*.host4.app[7].messageLength = 16B
*.host4.app[7].sendInterval = 1ms
*.host4.app[7].startTime = 9500us
*.host4.app[7].stopTime = 9900us
*.host4.app[7].display-name = "type2_2"
*.host4.app[7].destPort = 1001
*.streamRedundancyConfigurator.configuration = [
	{
		name: "S1-0",
		packetFilter: "*-type1_0-*",
		source: "host4",
		destination: "host2",
		trees: [[["host4", "switch4", "switch2", "host2"]]]
	},
	{
		name: "S2-0",
		packetFilter: "*-type2_0-*",
		source: "host3",
		destination: "host1",
		trees: [[["host3", "switch3", "switch2", "switch4", "switch1", "host1"]]]
	},
	{
		name: "S2-1",
		packetFilter: "*-type2_1-*",
		source: "host1",
		destination: "host2",
		trees: [[["host1", "switch1", "switch3", "switch2", "host2"]]]
	},
	{
		name: "S2-2",
		packetFilter: "*-type2_2-*",
		source: "host4",
		destination: "host1",
		trees: [[["host4", "switch4", "switch1", "host1"]]]
	}]
	

