[General]
network = TSN_multipath
sim-time-limit = 100ms
*.macForwardingTableConfigurator.typename = ""
*.*.hasStreamRedundancy = true
*.*.bridging.streamRelay.typename = "StreamRelayLayer"
*.*.bridging.streamCoder.typename = "StreamCoderLayer"
*.streamRedundancyConfigurator.typename = "StreamRedundancyConfigurator"
*.host0.eth[0].bitrate = 1000Mbps
*.switch0.eth[0].bitrate = 1000Mbps
*.switch0.eth[1].bitrate = 1300Mbps
*.switch0.eth[2].bitrate = 1400Mbps
*.switch0.eth[3].bitrate = 1800Mbps
*.switch0.eth[4].bitrate = 1600Mbps
*.switch0.eth[5].bitrate = 1800Mbps
*.switch0.eth[6].bitrate = 1300Mbps
*.switch0.eth[7].bitrate = 2200Mbps
*.switch0.eth[8].bitrate = 1300Mbps
*.switch0.eth[9].bitrate = 1700Mbps
*.switch0.eth[10].bitrate = 1200Mbps
*.switch0.eth[11].bitrate = 2200Mbps
*.switch0.eth[12].bitrate = 1300Mbps
*.switch0.eth[13].bitrate = 1900Mbps
*.switch0.eth[14].bitrate = 1800Mbps
*.switch0.eth[15].bitrate = 1900Mbps
*.switch0.eth[16].bitrate = 1800Mbps
*.switch0.eth[17].bitrate = 1900Mbps
*.switch0.eth[18].bitrate = 2200Mbps
*.host1.eth[0].bitrate = 1000Mbps
*.switch1.eth[0].bitrate = 1000Mbps
*.switch1.eth[1].bitrate = 1300Mbps
*.switch1.eth[2].bitrate = 1900Mbps
*.switch1.eth[3].bitrate = 2300Mbps
*.switch1.eth[4].bitrate = 1200Mbps
*.switch1.eth[5].bitrate = 1900Mbps
*.switch1.eth[6].bitrate = 1200Mbps
*.switch1.eth[7].bitrate = 1200Mbps
*.switch1.eth[8].bitrate = 1400Mbps
*.switch1.eth[9].bitrate = 1300Mbps
*.switch1.eth[10].bitrate = 1300Mbps
*.switch1.eth[11].bitrate = 1300Mbps
*.switch1.eth[12].bitrate = 2400Mbps
*.switch1.eth[13].bitrate = 2200Mbps
*.switch1.eth[14].bitrate = 2100Mbps
*.switch1.eth[15].bitrate = 1900Mbps
*.switch1.eth[16].bitrate = 1600Mbps
*.host2.eth[0].bitrate = 1000Mbps
*.switch2.eth[0].bitrate = 1000Mbps
*.switch2.eth[1].bitrate = 2300Mbps
*.switch2.eth[2].bitrate = 2200Mbps
*.switch2.eth[3].bitrate = 1500Mbps
*.switch2.eth[4].bitrate = 1800Mbps
*.switch2.eth[5].bitrate = 1900Mbps
*.switch2.eth[6].bitrate = 2400Mbps
*.switch2.eth[7].bitrate = 1300Mbps
*.switch2.eth[8].bitrate = 1400Mbps
*.switch2.eth[9].bitrate = 1600Mbps
*.switch2.eth[10].bitrate = 2400Mbps
*.switch2.eth[11].bitrate = 1300Mbps
*.host3.eth[0].bitrate = 1000Mbps
*.switch3.eth[0].bitrate = 1000Mbps
*.switch3.eth[1].bitrate = 1400Mbps
*.switch3.eth[2].bitrate = 1800Mbps
*.switch3.eth[3].bitrate = 1900Mbps
*.switch3.eth[4].bitrate = 1900Mbps
*.switch3.eth[5].bitrate = 1200Mbps
*.switch3.eth[6].bitrate = 2100Mbps
*.switch3.eth[7].bitrate = 2100Mbps
*.switch3.eth[8].bitrate = 1300Mbps
*.switch3.eth[9].bitrate = 2300Mbps
*.switch3.eth[10].bitrate = 1600Mbps
*.host4.eth[0].bitrate = 1000Mbps
*.switch4.eth[0].bitrate = 1000Mbps
*.switch4.eth[1].bitrate = 1800Mbps
*.switch4.eth[2].bitrate = 1200Mbps
*.switch4.eth[3].bitrate = 1400Mbps
*.switch4.eth[4].bitrate = 1700Mbps
*.switch4.eth[5].bitrate = 2100Mbps
*.switch4.eth[6].bitrate = 2300Mbps
*.switch4.eth[7].bitrate = 2300Mbps
*.switch4.eth[8].bitrate = 1700Mbps
*.switch4.eth[9].bitrate = 1700Mbps
*.switch4.eth[10].bitrate = 1700Mbps
*.switch4.eth[11].bitrate = 2400Mbps
*.switch4.eth[12].bitrate = 2200Mbps
*.switch4.eth[13].bitrate = 2000Mbps
*.switch4.eth[14].bitrate = 1900Mbps
*.switch4.eth[15].bitrate = 2200Mbps
*.host5.eth[0].bitrate = 1000Mbps
*.switch5.eth[0].bitrate = 1000Mbps
*.switch5.eth[1].bitrate = 1600Mbps
*.switch5.eth[2].bitrate = 1900Mbps
*.switch5.eth[3].bitrate = 2200Mbps
*.switch5.eth[4].bitrate = 1900Mbps
*.switch5.eth[5].bitrate = 1700Mbps
*.switch5.eth[6].bitrate = 2400Mbps
*.switch5.eth[7].bitrate = 1600Mbps
*.switch5.eth[8].bitrate = 2100Mbps
*.switch5.eth[9].bitrate = 1700Mbps
*.switch5.eth[10].bitrate = 2400Mbps
*.switch5.eth[11].bitrate = 1400Mbps
*.switch5.eth[12].bitrate = 2200Mbps
*.switch5.eth[13].bitrate = 1800Mbps
*.switch5.eth[14].bitrate = 1600Mbps
*.switch5.eth[15].bitrate = 2100Mbps
*.switch5.eth[16].bitrate = 2000Mbps
*.switch5.eth[17].bitrate = 2200Mbps
*.switch5.eth[18].bitrate = 1500Mbps
*.switch5.eth[19].bitrate = 1700Mbps
*.switch5.eth[20].bitrate = 2200Mbps
*.switch5.eth[21].bitrate = 1500Mbps
*.switch5.eth[22].bitrate = 1500Mbps
*.switch5.eth[23].bitrate = 2300Mbps
*.switch5.eth[24].bitrate = 2400Mbps
*.host6.eth[0].bitrate = 1000Mbps
*.switch6.eth[0].bitrate = 1000Mbps
*.switch6.eth[1].bitrate = 1800Mbps
*.switch6.eth[2].bitrate = 1200Mbps
*.switch6.eth[3].bitrate = 1500Mbps
*.switch6.eth[4].bitrate = 1900Mbps
*.switch6.eth[5].bitrate = 2400Mbps
*.switch6.eth[6].bitrate = 1900Mbps
*.switch6.eth[7].bitrate = 1700Mbps
*.switch6.eth[8].bitrate = 1700Mbps
*.switch6.eth[9].bitrate = 1300Mbps
*.switch6.eth[10].bitrate = 1500Mbps
*.switch6.eth[11].bitrate = 2100Mbps
*.switch6.eth[12].bitrate = 1300Mbps
*.switch6.eth[13].bitrate = 2300Mbps
*.switch6.eth[14].bitrate = 2000Mbps
*.switch6.eth[15].bitrate = 2400Mbps
*.switch6.eth[16].bitrate = 1200Mbps
*.switch6.eth[17].bitrate = 1800Mbps
*.switch6.eth[18].bitrate = 1800Mbps
*.switch6.eth[19].bitrate = 2300Mbps
*.host7.eth[0].bitrate = 1000Mbps
*.switch7.eth[0].bitrate = 1000Mbps
*.switch7.eth[1].bitrate = 1300Mbps
*.switch7.eth[2].bitrate = 1200Mbps
*.switch7.eth[3].bitrate = 2100Mbps
*.switch7.eth[4].bitrate = 1400Mbps
*.switch7.eth[5].bitrate = 1300Mbps
*.switch7.eth[6].bitrate = 1700Mbps
*.switch7.eth[7].bitrate = 1800Mbps
*.switch7.eth[8].bitrate = 1900Mbps
*.switch7.eth[9].bitrate = 1600Mbps
*.switch7.eth[10].bitrate = 2200Mbps
*.switch7.eth[11].bitrate = 2300Mbps
*.switch7.eth[12].bitrate = 2100Mbps
*.switch7.eth[13].bitrate = 2400Mbps
*.switch7.eth[14].bitrate = 1300Mbps
*.host8.eth[0].bitrate = 1000Mbps
*.switch8.eth[0].bitrate = 1000Mbps
*.switch8.eth[1].bitrate = 2200Mbps
*.switch8.eth[2].bitrate = 1400Mbps
*.switch8.eth[3].bitrate = 1800Mbps
*.switch8.eth[4].bitrate = 1200Mbps
*.switch8.eth[5].bitrate = 2200Mbps
*.switch8.eth[6].bitrate = 1500Mbps
*.switch8.eth[7].bitrate = 1800Mbps
*.switch8.eth[8].bitrate = 2200Mbps
*.switch8.eth[9].bitrate = 2400Mbps
*.switch8.eth[10].bitrate = 1800Mbps
*.switch8.eth[11].bitrate = 1500Mbps
*.switch8.eth[12].bitrate = 1800Mbps
*.switch8.eth[13].bitrate = 1200Mbps
*.host9.eth[0].bitrate = 1000Mbps
*.switch9.eth[0].bitrate = 1000Mbps
*.switch9.eth[1].bitrate = 1300Mbps
*.switch9.eth[2].bitrate = 1900Mbps
*.switch9.eth[3].bitrate = 2300Mbps
*.switch9.eth[4].bitrate = 1800Mbps
*.switch9.eth[5].bitrate = 2100Mbps
*.switch9.eth[6].bitrate = 1900Mbps
*.switch9.eth[7].bitrate = 1300Mbps
*.switch9.eth[8].bitrate = 2400Mbps
*.switch9.eth[9].bitrate = 2200Mbps
*.switch9.eth[10].bitrate = 1200Mbps
*.switch9.eth[11].bitrate = 2400Mbps
*.switch9.eth[12].bitrate = 2000Mbps
*.switch9.eth[13].bitrate = 1200Mbps
*.switch9.eth[14].bitrate = 2300Mbps
*.switch9.eth[15].bitrate = 2000Mbps
*.switch9.eth[16].bitrate = 2200Mbps
*.host10.eth[0].bitrate = 1000Mbps
*.switch10.eth[0].bitrate = 1000Mbps
*.switch10.eth[1].bitrate = 1700Mbps
*.switch10.eth[2].bitrate = 1600Mbps
*.switch10.eth[3].bitrate = 1300Mbps
*.switch10.eth[4].bitrate = 1600Mbps
*.switch10.eth[5].bitrate = 1800Mbps
*.switch10.eth[6].bitrate = 2200Mbps
*.switch10.eth[7].bitrate = 2400Mbps
*.switch10.eth[8].bitrate = 2200Mbps
*.switch10.eth[9].bitrate = 1500Mbps
*.switch10.eth[10].bitrate = 1800Mbps
*.switch10.eth[11].bitrate = 2300Mbps
*.switch10.eth[12].bitrate = 1800Mbps
*.switch10.eth[13].bitrate = 2300Mbps
*.switch10.eth[14].bitrate = 2200Mbps
*.switch10.eth[15].bitrate = 2000Mbps
*.switch10.eth[16].bitrate = 1800Mbps
*.switch10.eth[17].bitrate = 2200Mbps
*.switch10.eth[18].bitrate = 1400Mbps
*.switch10.eth[19].bitrate = 1600Mbps
*.host11.eth[0].bitrate = 1000Mbps
*.switch11.eth[0].bitrate = 1000Mbps
*.switch11.eth[1].bitrate = 2400Mbps
*.switch11.eth[2].bitrate = 2300Mbps
*.switch11.eth[3].bitrate = 2100Mbps
*.switch11.eth[4].bitrate = 2000Mbps
*.switch11.eth[5].bitrate = 2300Mbps
*.switch11.eth[6].bitrate = 2100Mbps
*.switch11.eth[7].bitrate = 2300Mbps
*.switch11.eth[8].bitrate = 2000Mbps
*.switch11.eth[9].bitrate = 1500Mbps
*.switch11.eth[10].bitrate = 1800Mbps
*.switch11.eth[11].bitrate = 1500Mbps
*.switch11.eth[12].bitrate = 2000Mbps
*.switch11.eth[13].bitrate = 2200Mbps
*.switch11.eth[14].bitrate = 2400Mbps
*.switch11.eth[15].bitrate = 2200Mbps
*.switch11.eth[16].bitrate = 2400Mbps
*.switch11.eth[17].bitrate = 2400Mbps
*.host12.eth[0].bitrate = 1000Mbps
*.switch12.eth[0].bitrate = 1000Mbps
*.switch12.eth[1].bitrate = 1200Mbps
*.switch12.eth[2].bitrate = 1300Mbps
*.switch12.eth[3].bitrate = 2000Mbps
*.switch12.eth[4].bitrate = 2300Mbps
*.switch12.eth[5].bitrate = 2200Mbps
*.switch12.eth[6].bitrate = 2400Mbps
*.switch12.eth[7].bitrate = 1900Mbps
*.switch12.eth[8].bitrate = 1900Mbps
*.switch12.eth[9].bitrate = 2100Mbps
*.switch12.eth[10].bitrate = 1800Mbps
*.switch12.eth[11].bitrate = 1400Mbps
*.switch12.eth[12].bitrate = 1200Mbps
*.switch12.eth[13].bitrate = 2300Mbps
*.switch12.eth[14].bitrate = 1900Mbps
*.host13.eth[0].bitrate = 1000Mbps
*.switch13.eth[0].bitrate = 1000Mbps
*.switch13.eth[1].bitrate = 2200Mbps
*.switch13.eth[2].bitrate = 1300Mbps
*.switch13.eth[3].bitrate = 2100Mbps
*.switch13.eth[4].bitrate = 2200Mbps
*.switch13.eth[5].bitrate = 2000Mbps
*.switch13.eth[6].bitrate = 1200Mbps
*.switch13.eth[7].bitrate = 2000Mbps
*.switch13.eth[8].bitrate = 2200Mbps
*.switch13.eth[9].bitrate = 1900Mbps
*.switch13.eth[10].bitrate = 2300Mbps
*.switch13.eth[11].bitrate = 2400Mbps
*.switch13.eth[12].bitrate = 2400Mbps
*.switch13.eth[13].bitrate = 2300Mbps
*.switch13.eth[14].bitrate = 2100Mbps
*.host14.eth[0].bitrate = 1000Mbps
*.switch14.eth[0].bitrate = 1000Mbps
*.switch14.eth[1].bitrate = 1300Mbps
*.switch14.eth[2].bitrate = 1300Mbps
*.switch14.eth[3].bitrate = 1300Mbps
*.switch14.eth[4].bitrate = 1500Mbps
*.switch14.eth[5].bitrate = 2400Mbps
*.switch14.eth[6].bitrate = 2300Mbps
*.switch14.eth[7].bitrate = 1800Mbps
*.switch14.eth[8].bitrate = 2400Mbps
*.switch14.eth[9].bitrate = 1200Mbps
*.switch14.eth[10].bitrate = 2200Mbps
*.switch14.eth[11].bitrate = 1600Mbps
*.switch14.eth[12].bitrate = 1300Mbps
*.switch14.eth[13].bitrate = 1600Mbps
*.switch14.eth[14].bitrate = 2200Mbps
*.switch14.eth[15].bitrate = 2400Mbps
*.switch14.eth[16].bitrate = 2300Mbps
*.switch14.eth[17].bitrate = 1300Mbps
*.switch14.eth[18].bitrate = 1200Mbps
*.switch14.eth[19].bitrate = 2200Mbps
*.switch14.eth[20].bitrate = 1600Mbps
*.switch14.eth[21].bitrate = 1900Mbps
*.switch14.eth[22].bitrate = 2100Mbps
*.host0.numApps = 2
*.host0.app[0].typename = "UdpSourceApp"
*.host0.app[0].io.destAddress = "host7"
*.host0.app[0].source.packetNameFormat = "%M-%m-%c"
*.host0.app[0].source.displayStringTextFormat = "sent %p pk (%l)"
*.host0.app[0].source.packetLength = 22B
*.host0.app[0].source.productionInterval = 1ms
*.host0.app[0].display-name = "type1_2"
*.host0.app[0].io.destPort = 1000
*.host0.app[1].typename = "UdpSourceApp"
*.host0.app[1].io.destAddress = "host13"
*.host0.app[1].source.packetNameFormat = "%M-%m-%c"
*.host0.app[1].source.displayStringTextFormat = "sent %p pk (%l)"
*.host0.app[1].source.packetLength = 18B
*.host0.app[1].source.productionInterval = 1ms
*.host0.app[1].display-name = "type1_7"
*.host0.app[1].io.destPort = 1000
*.host1.numApps = 10
*.host1.app[0].typename = "UdpSinkApp"
*.host1.app[0].io.localPort = 1000
*.host1.app[1].typename = "UdpSourceApp"
*.host1.app[1].io.destAddress = "host11"
*.host1.app[1].source.packetNameFormat = "%M-%m-%c"
*.host1.app[1].source.displayStringTextFormat = "sent %p pk (%l)"
*.host1.app[1].source.packetLength = 22B
*.host1.app[1].source.productionInterval = 1ms
*.host1.app[1].display-name = "type1_4"
*.host1.app[1].io.destPort = 1001
*.host1.app[2].typename = "UdpSourceApp"
*.host1.app[2].io.destAddress = "host12"
*.host1.app[2].source.packetNameFormat = "%M-%m-%c"
*.host1.app[2].source.displayStringTextFormat = "sent %p pk (%l)"
*.host1.app[2].source.packetLength = 17B
*.host1.app[2].source.productionInterval = 1ms
*.host1.app[2].display-name = "type1_8"
*.host1.app[2].io.destPort = 1000
*.host1.app[3].typename = "UdpSinkApp"
*.host1.app[3].io.localPort = 1001
*.host1.app[4].typename = "UdpBasicApp"
*.host1.app[4].destAddresses = "host8"
*.host1.app[4].source.packetNameFormat = "%M-%m-%c"
*.host1.app[4].source.displayStringTextFormat = "sent %p pk (%l)"
*.host1.app[4].messageLength = 12B
*.host1.app[4].sendInterval = 1ms
*.host1.app[4].startTime = 11ms
*.host1.app[4].stopTime = 27ms
*.host1.app[4].display-name = "type2_12"
*.host1.app[4].destPort = 1002
*.host1.app[5].typename = "UdpBasicApp"
*.host1.app[5].destAddresses = "host8"
*.host1.app[5].source.packetNameFormat = "%M-%m-%c"
*.host1.app[5].source.displayStringTextFormat = "sent %p pk (%l)"
*.host1.app[5].messageLength = 12B
*.host1.app[5].sendInterval = 1ms
*.host1.app[5].startTime = 28ms
*.host1.app[5].stopTime = 37ms
*.host1.app[5].display-name = "type2_12"
*.host1.app[5].destPort = 1002
*.host1.app[6].typename = "UdpBasicApp"
*.host1.app[6].destAddresses = "host8"
*.host1.app[6].source.packetNameFormat = "%M-%m-%c"
*.host1.app[6].source.displayStringTextFormat = "sent %p pk (%l)"
*.host1.app[6].messageLength = 12B
*.host1.app[6].sendInterval = 1ms
*.host1.app[6].startTime = 47ms
*.host1.app[6].stopTime = 51ms
*.host1.app[6].display-name = "type2_12"
*.host1.app[6].destPort = 1002
*.host1.app[7].typename = "UdpBasicApp"
*.host1.app[7].destAddresses = "host8"
*.host1.app[7].source.packetNameFormat = "%M-%m-%c"
*.host1.app[7].source.displayStringTextFormat = "sent %p pk (%l)"
*.host1.app[7].messageLength = 12B
*.host1.app[7].sendInterval = 1ms
*.host1.app[7].startTime = 57ms
*.host1.app[7].stopTime = 58ms
*.host1.app[7].display-name = "type2_12"
*.host1.app[7].destPort = 1002
*.host1.app[8].typename = "UdpBasicApp"
*.host1.app[8].destAddresses = "host8"
*.host1.app[8].source.packetNameFormat = "%M-%m-%c"
*.host1.app[8].source.displayStringTextFormat = "sent %p pk (%l)"
*.host1.app[8].messageLength = 12B
*.host1.app[8].sendInterval = 1ms
*.host1.app[8].startTime = 86ms
*.host1.app[8].stopTime = 87ms
*.host1.app[8].display-name = "type2_12"
*.host1.app[8].destPort = 1002
*.host1.app[9].typename = "UdpBasicApp"
*.host1.app[9].destAddresses = "host8"
*.host1.app[9].source.packetNameFormat = "%M-%m-%c"
*.host1.app[9].source.displayStringTextFormat = "sent %p pk (%l)"
*.host1.app[9].messageLength = 12B
*.host1.app[9].sendInterval = 1ms
*.host1.app[9].startTime = 91ms
*.host1.app[9].stopTime = 96ms
*.host1.app[9].display-name = "type2_12"
*.host1.app[9].destPort = 1002
*.host2.numApps = 6
*.host2.app[0].typename = "UdpBasicApp"
*.host2.app[0].destAddresses = "host13"
*.host2.app[0].source.packetNameFormat = "%M-%m-%c"
*.host2.app[0].source.displayStringTextFormat = "sent %p pk (%l)"
*.host2.app[0].messageLength = 18B
*.host2.app[0].sendInterval = 1ms
*.host2.app[0].startTime = 26ms
*.host2.app[0].stopTime = 30ms
*.host2.app[0].display-name = "type2_1"
*.host2.app[0].destPort = 1001
*.host2.app[1].typename = "UdpBasicApp"
*.host2.app[1].destAddresses = "host13"
*.host2.app[1].source.packetNameFormat = "%M-%m-%c"
*.host2.app[1].source.displayStringTextFormat = "sent %p pk (%l)"
*.host2.app[1].messageLength = 18B
*.host2.app[1].sendInterval = 1ms
*.host2.app[1].startTime = 50ms
*.host2.app[1].stopTime = 54ms
*.host2.app[1].display-name = "type2_1"
*.host2.app[1].destPort = 1001
*.host2.app[2].typename = "UdpBasicApp"
*.host2.app[2].destAddresses = "host13"
*.host2.app[2].source.packetNameFormat = "%M-%m-%c"
*.host2.app[2].source.displayStringTextFormat = "sent %p pk (%l)"
*.host2.app[2].messageLength = 18B
*.host2.app[2].sendInterval = 1ms
*.host2.app[2].startTime = 67ms
*.host2.app[2].stopTime = 71ms
*.host2.app[2].display-name = "type2_1"
*.host2.app[2].destPort = 1001
*.host2.app[3].typename = "UdpBasicApp"
*.host2.app[3].destAddresses = "host13"
*.host2.app[3].source.packetNameFormat = "%M-%m-%c"
*.host2.app[3].source.displayStringTextFormat = "sent %p pk (%l)"
*.host2.app[3].messageLength = 18B
*.host2.app[3].sendInterval = 1ms
*.host2.app[3].startTime = 72ms
*.host2.app[3].stopTime = 89ms
*.host2.app[3].display-name = "type2_1"
*.host2.app[3].destPort = 1001
*.host2.app[4].typename = "UdpBasicApp"
*.host2.app[4].destAddresses = "host13"
*.host2.app[4].source.packetNameFormat = "%M-%m-%c"
*.host2.app[4].source.displayStringTextFormat = "sent %p pk (%l)"
*.host2.app[4].messageLength = 18B
*.host2.app[4].sendInterval = 1ms
*.host2.app[4].startTime = 95ms
*.host2.app[4].stopTime = 100ms
*.host2.app[4].display-name = "type2_1"
*.host2.app[4].destPort = 1001
*.host2.app[5].typename = "UdpSinkApp"
*.host2.app[5].io.localPort = 1000
*.host3.numApps = 3
*.host3.app[0].typename = "UdpSourceApp"
*.host3.app[0].io.destAddress = "host1"
*.host3.app[0].source.packetNameFormat = "%M-%m-%c"
*.host3.app[0].source.displayStringTextFormat = "sent %p pk (%l)"
*.host3.app[0].source.packetLength = 20B
*.host3.app[0].source.productionInterval = 1ms
*.host3.app[0].display-name = "type1_0"
*.host3.app[0].io.destPort = 1000
*.host3.app[1].typename = "UdpSinkApp"
*.host3.app[1].io.localPort = 1000
*.host3.app[2].typename = "UdpSinkApp"
*.host3.app[2].io.localPort = 1001
*.host4.numApps = 13
*.host4.app[0].typename = "UdpSinkApp"
*.host4.app[0].io.localPort = 1000
*.host4.app[1].typename = "UdpBasicApp"
*.host4.app[1].destAddresses = "host10"
*.host4.app[1].source.packetNameFormat = "%M-%m-%c"
*.host4.app[1].source.displayStringTextFormat = "sent %p pk (%l)"
*.host4.app[1].messageLength = 24B
*.host4.app[1].sendInterval = 1ms
*.host4.app[1].startTime = 0ms
*.host4.app[1].stopTime = 4ms
*.host4.app[1].display-name = "type2_8"
*.host4.app[1].destPort = 1002
*.host4.app[2].typename = "UdpBasicApp"
*.host4.app[2].destAddresses = "host10"
*.host4.app[2].source.packetNameFormat = "%M-%m-%c"
*.host4.app[2].source.displayStringTextFormat = "sent %p pk (%l)"
*.host4.app[2].messageLength = 24B
*.host4.app[2].sendInterval = 1ms
*.host4.app[2].startTime = 19ms
*.host4.app[2].stopTime = 23ms
*.host4.app[2].display-name = "type2_8"
*.host4.app[2].destPort = 1002
*.host4.app[3].typename = "UdpBasicApp"
*.host4.app[3].destAddresses = "host10"
*.host4.app[3].source.packetNameFormat = "%M-%m-%c"
*.host4.app[3].source.displayStringTextFormat = "sent %p pk (%l)"
*.host4.app[3].messageLength = 24B
*.host4.app[3].sendInterval = 1ms
*.host4.app[3].startTime = 26ms
*.host4.app[3].stopTime = 34ms
*.host4.app[3].display-name = "type2_8"
*.host4.app[3].destPort = 1002
*.host4.app[4].typename = "UdpBasicApp"
*.host4.app[4].destAddresses = "host10"
*.host4.app[4].source.packetNameFormat = "%M-%m-%c"
*.host4.app[4].source.displayStringTextFormat = "sent %p pk (%l)"
*.host4.app[4].messageLength = 24B
*.host4.app[4].sendInterval = 1ms
*.host4.app[4].startTime = 37ms
*.host4.app[4].stopTime = 71ms
*.host4.app[4].display-name = "type2_8"
*.host4.app[4].destPort = 1002
*.host4.app[5].typename = "UdpBasicApp"
*.host4.app[5].destAddresses = "host10"
*.host4.app[5].source.packetNameFormat = "%M-%m-%c"
*.host4.app[5].source.displayStringTextFormat = "sent %p pk (%l)"
*.host4.app[5].messageLength = 24B
*.host4.app[5].sendInterval = 1ms
*.host4.app[5].startTime = 89ms
*.host4.app[5].stopTime = 95ms
*.host4.app[5].display-name = "type2_8"
*.host4.app[5].destPort = 1002
*.host4.app[6].typename = "UdpBasicApp"
*.host4.app[6].destAddresses = "host9"
*.host4.app[6].source.packetNameFormat = "%M-%m-%c"
*.host4.app[6].source.displayStringTextFormat = "sent %p pk (%l)"
*.host4.app[6].messageLength = 19B
*.host4.app[6].sendInterval = 1ms
*.host4.app[6].startTime = 7ms
*.host4.app[6].stopTime = 12ms
*.host4.app[6].display-name = "type2_11"
*.host4.app[6].destPort = 1002
*.host4.app[7].typename = "UdpBasicApp"
*.host4.app[7].destAddresses = "host9"
*.host4.app[7].source.packetNameFormat = "%M-%m-%c"
*.host4.app[7].source.displayStringTextFormat = "sent %p pk (%l)"
*.host4.app[7].messageLength = 19B
*.host4.app[7].sendInterval = 1ms
*.host4.app[7].startTime = 21ms
*.host4.app[7].stopTime = 30ms
*.host4.app[7].display-name = "type2_11"
*.host4.app[7].destPort = 1002
*.host4.app[8].typename = "UdpBasicApp"
*.host4.app[8].destAddresses = "host9"
*.host4.app[8].source.packetNameFormat = "%M-%m-%c"
*.host4.app[8].source.displayStringTextFormat = "sent %p pk (%l)"
*.host4.app[8].messageLength = 19B
*.host4.app[8].sendInterval = 1ms
*.host4.app[8].startTime = 36ms
*.host4.app[8].stopTime = 46ms
*.host4.app[8].display-name = "type2_11"
*.host4.app[8].destPort = 1002
*.host4.app[9].typename = "UdpBasicApp"
*.host4.app[9].destAddresses = "host9"
*.host4.app[9].source.packetNameFormat = "%M-%m-%c"
*.host4.app[9].source.displayStringTextFormat = "sent %p pk (%l)"
*.host4.app[9].messageLength = 19B
*.host4.app[9].sendInterval = 1ms
*.host4.app[9].startTime = 54ms
*.host4.app[9].stopTime = 63ms
*.host4.app[9].display-name = "type2_11"
*.host4.app[9].destPort = 1002
*.host4.app[10].typename = "UdpBasicApp"
*.host4.app[10].destAddresses = "host9"
*.host4.app[10].source.packetNameFormat = "%M-%m-%c"
*.host4.app[10].source.displayStringTextFormat = "sent %p pk (%l)"
*.host4.app[10].messageLength = 19B
*.host4.app[10].sendInterval = 1ms
*.host4.app[10].startTime = 69ms
*.host4.app[10].stopTime = 76ms
*.host4.app[10].display-name = "type2_11"
*.host4.app[10].destPort = 1002
*.host4.app[11].typename = "UdpBasicApp"
*.host4.app[11].destAddresses = "host9"
*.host4.app[11].source.packetNameFormat = "%M-%m-%c"
*.host4.app[11].source.displayStringTextFormat = "sent %p pk (%l)"
*.host4.app[11].messageLength = 19B
*.host4.app[11].sendInterval = 1ms
*.host4.app[11].startTime = 83ms
*.host4.app[11].stopTime = 93ms
*.host4.app[11].display-name = "type2_11"
*.host4.app[11].destPort = 1002
*.host4.app[12].typename = "UdpBasicApp"
*.host4.app[12].destAddresses = "host9"
*.host4.app[12].source.packetNameFormat = "%M-%m-%c"
*.host4.app[12].source.displayStringTextFormat = "sent %p pk (%l)"
*.host4.app[12].messageLength = 19B
*.host4.app[12].sendInterval = 1ms
*.host4.app[12].startTime = 95ms
*.host4.app[12].stopTime = 100ms
*.host4.app[12].display-name = "type2_11"
*.host4.app[12].destPort = 1002
*.host5.numApps = 15
*.host5.app[0].typename = "UdpSourceApp"
*.host5.app[0].io.destAddress = "host11"
*.host5.app[0].source.packetNameFormat = "%M-%m-%c"
*.host5.app[0].source.displayStringTextFormat = "sent %p pk (%l)"
*.host5.app[0].source.packetLength = 22B
*.host5.app[0].source.productionInterval = 1ms
*.host5.app[0].display-name = "type1_3"
*.host5.app[0].io.destPort = 1000
*.host5.app[1].typename = "UdpBasicApp"
*.host5.app[1].destAddresses = "host7"
*.host5.app[1].source.packetNameFormat = "%M-%m-%c"
*.host5.app[1].source.displayStringTextFormat = "sent %p pk (%l)"
*.host5.app[1].messageLength = 17B
*.host5.app[1].sendInterval = 1ms
*.host5.app[1].startTime = 8ms
*.host5.app[1].stopTime = 34ms
*.host5.app[1].display-name = "type2_6"
*.host5.app[1].destPort = 1002
*.host5.app[2].typename = "UdpBasicApp"
*.host5.app[2].destAddresses = "host7"
*.host5.app[2].source.packetNameFormat = "%M-%m-%c"
*.host5.app[2].source.displayStringTextFormat = "sent %p pk (%l)"
*.host5.app[2].messageLength = 17B
*.host5.app[2].sendInterval = 1ms
*.host5.app[2].startTime = 39ms
*.host5.app[2].stopTime = 40ms
*.host5.app[2].display-name = "type2_6"
*.host5.app[2].destPort = 1002
*.host5.app[3].typename = "UdpBasicApp"
*.host5.app[3].destAddresses = "host7"
*.host5.app[3].source.packetNameFormat = "%M-%m-%c"
*.host5.app[3].source.displayStringTextFormat = "sent %p pk (%l)"
*.host5.app[3].messageLength = 17B
*.host5.app[3].sendInterval = 1ms
*.host5.app[3].startTime = 44ms
*.host5.app[3].stopTime = 55ms
*.host5.app[3].display-name = "type2_6"
*.host5.app[3].destPort = 1002
*.host5.app[4].typename = "UdpBasicApp"
*.host5.app[4].destAddresses = "host7"
*.host5.app[4].source.packetNameFormat = "%M-%m-%c"
*.host5.app[4].source.displayStringTextFormat = "sent %p pk (%l)"
*.host5.app[4].messageLength = 17B
*.host5.app[4].sendInterval = 1ms
*.host5.app[4].startTime = 56ms
*.host5.app[4].stopTime = 60ms
*.host5.app[4].display-name = "type2_6"
*.host5.app[4].destPort = 1002
*.host5.app[5].typename = "UdpBasicApp"
*.host5.app[5].destAddresses = "host7"
*.host5.app[5].source.packetNameFormat = "%M-%m-%c"
*.host5.app[5].source.displayStringTextFormat = "sent %p pk (%l)"
*.host5.app[5].messageLength = 17B
*.host5.app[5].sendInterval = 1ms
*.host5.app[5].startTime = 62ms
*.host5.app[5].stopTime = 68ms
*.host5.app[5].display-name = "type2_6"
*.host5.app[5].destPort = 1002
*.host5.app[6].typename = "UdpBasicApp"
*.host5.app[6].destAddresses = "host7"
*.host5.app[6].source.packetNameFormat = "%M-%m-%c"
*.host5.app[6].source.displayStringTextFormat = "sent %p pk (%l)"
*.host5.app[6].messageLength = 17B
*.host5.app[6].sendInterval = 1ms
*.host5.app[6].startTime = 71ms
*.host5.app[6].stopTime = 72ms
*.host5.app[6].display-name = "type2_6"
*.host5.app[6].destPort = 1002
*.host5.app[7].typename = "UdpBasicApp"
*.host5.app[7].destAddresses = "host7"
*.host5.app[7].source.packetNameFormat = "%M-%m-%c"
*.host5.app[7].source.displayStringTextFormat = "sent %p pk (%l)"
*.host5.app[7].messageLength = 17B
*.host5.app[7].sendInterval = 1ms
*.host5.app[7].startTime = 90ms
*.host5.app[7].stopTime = 94ms
*.host5.app[7].display-name = "type2_6"
*.host5.app[7].destPort = 1002
*.host5.app[8].typename = "UdpBasicApp"
*.host5.app[8].destAddresses = "host7"
*.host5.app[8].source.packetNameFormat = "%M-%m-%c"
*.host5.app[8].source.displayStringTextFormat = "sent %p pk (%l)"
*.host5.app[8].messageLength = 17B
*.host5.app[8].sendInterval = 1ms
*.host5.app[8].startTime = 97ms
*.host5.app[8].stopTime = 100ms
*.host5.app[8].display-name = "type2_6"
*.host5.app[8].destPort = 1002
*.host5.app[9].typename = "UdpBasicApp"
*.host5.app[9].destAddresses = "host2"
*.host5.app[9].source.packetNameFormat = "%M-%m-%c"
*.host5.app[9].source.displayStringTextFormat = "sent %p pk (%l)"
*.host5.app[9].messageLength = 21B
*.host5.app[9].sendInterval = 1ms
*.host5.app[9].startTime = 11ms
*.host5.app[9].stopTime = 22ms
*.host5.app[9].display-name = "type2_7"
*.host5.app[9].destPort = 1000
*.host5.app[10].typename = "UdpBasicApp"
*.host5.app[10].destAddresses = "host2"
*.host5.app[10].source.packetNameFormat = "%M-%m-%c"
*.host5.app[10].source.displayStringTextFormat = "sent %p pk (%l)"
*.host5.app[10].messageLength = 21B
*.host5.app[10].sendInterval = 1ms
*.host5.app[10].startTime = 32ms
*.host5.app[10].stopTime = 34ms
*.host5.app[10].display-name = "type2_7"
*.host5.app[10].destPort = 1000
*.host5.app[11].typename = "UdpBasicApp"
*.host5.app[11].destAddresses = "host2"
*.host5.app[11].source.packetNameFormat = "%M-%m-%c"
*.host5.app[11].source.displayStringTextFormat = "sent %p pk (%l)"
*.host5.app[11].messageLength = 21B
*.host5.app[11].sendInterval = 1ms
*.host5.app[11].startTime = 43ms
*.host5.app[11].stopTime = 60ms
*.host5.app[11].display-name = "type2_7"
*.host5.app[11].destPort = 1000
*.host5.app[12].typename = "UdpBasicApp"
*.host5.app[12].destAddresses = "host2"
*.host5.app[12].source.packetNameFormat = "%M-%m-%c"
*.host5.app[12].source.displayStringTextFormat = "sent %p pk (%l)"
*.host5.app[12].messageLength = 21B
*.host5.app[12].sendInterval = 1ms
*.host5.app[12].startTime = 67ms
*.host5.app[12].stopTime = 74ms
*.host5.app[12].display-name = "type2_7"
*.host5.app[12].destPort = 1000
*.host5.app[13].typename = "UdpBasicApp"
*.host5.app[13].destAddresses = "host2"
*.host5.app[13].source.packetNameFormat = "%M-%m-%c"
*.host5.app[13].source.displayStringTextFormat = "sent %p pk (%l)"
*.host5.app[13].messageLength = 21B
*.host5.app[13].sendInterval = 1ms
*.host5.app[13].startTime = 78ms
*.host5.app[13].stopTime = 92ms
*.host5.app[13].display-name = "type2_7"
*.host5.app[13].destPort = 1000
*.host5.app[14].typename = "UdpBasicApp"
*.host5.app[14].destAddresses = "host2"
*.host5.app[14].source.packetNameFormat = "%M-%m-%c"
*.host5.app[14].source.displayStringTextFormat = "sent %p pk (%l)"
*.host5.app[14].messageLength = 21B
*.host5.app[14].sendInterval = 1ms
*.host5.app[14].startTime = 96ms
*.host5.app[14].stopTime = 100ms
*.host5.app[14].display-name = "type2_7"
*.host5.app[14].destPort = 1000
*.host6.numApps = 14
*.host6.app[0].typename = "UdpBasicApp"
*.host6.app[0].destAddresses = "host14"
*.host6.app[0].source.packetNameFormat = "%M-%m-%c"
*.host6.app[0].source.displayStringTextFormat = "sent %p pk (%l)"
*.host6.app[0].messageLength = 15B
*.host6.app[0].sendInterval = 1ms
*.host6.app[0].startTime = 3ms
*.host6.app[0].stopTime = 6ms
*.host6.app[0].display-name = "type2_2"
*.host6.app[0].destPort = 1000
*.host6.app[1].typename = "UdpBasicApp"
*.host6.app[1].destAddresses = "host14"
*.host6.app[1].source.packetNameFormat = "%M-%m-%c"
*.host6.app[1].source.displayStringTextFormat = "sent %p pk (%l)"
*.host6.app[1].messageLength = 15B
*.host6.app[1].sendInterval = 1ms
*.host6.app[1].startTime = 15ms
*.host6.app[1].stopTime = 27ms
*.host6.app[1].display-name = "type2_2"
*.host6.app[1].destPort = 1000
*.host6.app[2].typename = "UdpBasicApp"
*.host6.app[2].destAddresses = "host14"
*.host6.app[2].source.packetNameFormat = "%M-%m-%c"
*.host6.app[2].source.displayStringTextFormat = "sent %p pk (%l)"
*.host6.app[2].messageLength = 15B
*.host6.app[2].sendInterval = 1ms
*.host6.app[2].startTime = 30ms
*.host6.app[2].stopTime = 49ms
*.host6.app[2].display-name = "type2_2"
*.host6.app[2].destPort = 1000
*.host6.app[3].typename = "UdpBasicApp"
*.host6.app[3].destAddresses = "host14"
*.host6.app[3].source.packetNameFormat = "%M-%m-%c"
*.host6.app[3].source.displayStringTextFormat = "sent %p pk (%l)"
*.host6.app[3].messageLength = 15B
*.host6.app[3].sendInterval = 1ms
*.host6.app[3].startTime = 51ms
*.host6.app[3].stopTime = 54ms
*.host6.app[3].display-name = "type2_2"
*.host6.app[3].destPort = 1000
*.host6.app[4].typename = "UdpBasicApp"
*.host6.app[4].destAddresses = "host14"
*.host6.app[4].source.packetNameFormat = "%M-%m-%c"
*.host6.app[4].source.displayStringTextFormat = "sent %p pk (%l)"
*.host6.app[4].messageLength = 15B
*.host6.app[4].sendInterval = 1ms
*.host6.app[4].startTime = 55ms
*.host6.app[4].stopTime = 56ms
*.host6.app[4].display-name = "type2_2"
*.host6.app[4].destPort = 1000
*.host6.app[5].typename = "UdpBasicApp"