[General]
network = TSN_multipath
sim-time-limit = 100ms
*.macForwardingTableConfigurator.typename = ""
*.*.hasStreamRedundancy = true
*.*.bridging.streamRelay.typename = "StreamRelayLayer"
*.*.bridging.streamCoder.typename = "StreamCoderLayer"
*.streamRedundancyConfigurator.typename = "StreamRedundancyConfigurator"
*.host0.eth[0].bitrate = 1000Mbps
*.switch0.eth[0].bitrate = 1000Mbps
*.switch0.eth[1].bitrate = 2000Mbps
*.switch0.eth[2].bitrate = 1300Mbps
*.switch0.eth[3].bitrate = 2100Mbps
*.switch0.eth[4].bitrate = 1600Mbps
*.switch0.eth[5].bitrate = 1800Mbps
*.switch0.eth[6].bitrate = 1200Mbps
*.switch0.eth[7].bitrate = 1800Mbps
*.switch0.eth[8].bitrate = 1400Mbps
*.switch0.eth[9].bitrate = 1200Mbps
*.switch0.eth[10].bitrate = 2400Mbps
*.switch0.eth[11].bitrate = 1400Mbps
*.host1.eth[0].bitrate = 1000Mbps
*.switch1.eth[0].bitrate = 1000Mbps
*.switch1.eth[1].bitrate = 2400Mbps
*.switch1.eth[2].bitrate = 1500Mbps
*.switch1.eth[3].bitrate = 2300Mbps
*.switch1.eth[4].bitrate = 1200Mbps
*.switch1.eth[5].bitrate = 2200Mbps
*.switch1.eth[6].bitrate = 1800Mbps
*.switch1.eth[7].bitrate = 2100Mbps
*.switch1.eth[8].bitrate = 1700Mbps
*.switch1.eth[9].bitrate = 1500Mbps
*.host2.eth[0].bitrate = 1000Mbps
*.switch2.eth[0].bitrate = 1000Mbps
*.switch2.eth[1].bitrate = 2400Mbps
*.switch2.eth[2].bitrate = 1200Mbps
*.switch2.eth[3].bitrate = 1500Mbps
*.switch2.eth[4].bitrate = 1200Mbps
*.switch2.eth[5].bitrate = 1400Mbps
*.switch2.eth[6].bitrate = 1600Mbps
*.switch2.eth[7].bitrate = 1900Mbps
*.switch2.eth[8].bitrate = 2200Mbps
*.host3.eth[0].bitrate = 1000Mbps
*.switch3.eth[0].bitrate = 1000Mbps
*.switch3.eth[1].bitrate = 2000Mbps
*.switch3.eth[2].bitrate = 2200Mbps
*.switch3.eth[3].bitrate = 1300Mbps
*.switch3.eth[4].bitrate = 1400Mbps
*.switch3.eth[5].bitrate = 2200Mbps
*.switch3.eth[6].bitrate = 2000Mbps
*.switch3.eth[7].bitrate = 1700Mbps
*.switch3.eth[8].bitrate = 1400Mbps
*.switch3.eth[9].bitrate = 2000Mbps
*.switch3.eth[10].bitrate = 1300Mbps
*.switch3.eth[11].bitrate = 2200Mbps
*.switch3.eth[12].bitrate = 2300Mbps
*.switch3.eth[13].bitrate = 2400Mbps
*.switch3.eth[14].bitrate = 2100Mbps
*.switch3.eth[15].bitrate = 1400Mbps
*.host4.eth[0].bitrate = 1000Mbps
*.switch4.eth[0].bitrate = 1000Mbps
*.switch4.eth[1].bitrate = 2000Mbps
*.switch4.eth[2].bitrate = 2200Mbps
*.switch4.eth[3].bitrate = 2000Mbps
*.switch4.eth[4].bitrate = 1800Mbps
*.switch4.eth[5].bitrate = 2000Mbps
*.switch4.eth[6].bitrate = 1700Mbps
*.switch4.eth[7].bitrate = 1900Mbps
*.switch4.eth[8].bitrate = 1800Mbps
*.switch4.eth[9].bitrate = 1700Mbps
*.switch4.eth[10].bitrate = 1600Mbps
*.switch4.eth[11].bitrate = 1300Mbps
*.host5.eth[0].bitrate = 1000Mbps
*.switch5.eth[0].bitrate = 1000Mbps
*.switch5.eth[1].bitrate = 1500Mbps
*.switch5.eth[2].bitrate = 1300Mbps
*.switch5.eth[3].bitrate = 1800Mbps
*.switch5.eth[4].bitrate = 1400Mbps
*.switch5.eth[5].bitrate = 1800Mbps
*.switch5.eth[6].bitrate = 1300Mbps
*.switch5.eth[7].bitrate = 2400Mbps
*.switch5.eth[8].bitrate = 2400Mbps
*.switch5.eth[9].bitrate = 2000Mbps
*.switch5.eth[10].bitrate = 1200Mbps
*.switch5.eth[11].bitrate = 1400Mbps
*.switch5.eth[12].bitrate = 1600Mbps
*.switch5.eth[13].bitrate = 1500Mbps
*.host6.eth[0].bitrate = 1000Mbps
*.switch6.eth[0].bitrate = 1000Mbps
*.switch6.eth[1].bitrate = 1300Mbps
*.switch6.eth[2].bitrate = 2400Mbps
*.switch6.eth[3].bitrate = 2000Mbps
*.switch6.eth[4].bitrate = 2400Mbps
*.switch6.eth[5].bitrate = 1400Mbps
*.switch6.eth[6].bitrate = 2300Mbps
*.switch6.eth[7].bitrate = 1700Mbps
*.switch6.eth[8].bitrate = 1700Mbps
*.switch6.eth[9].bitrate = 1700Mbps
*.switch6.eth[10].bitrate = 1400Mbps
*.switch6.eth[11].bitrate = 2200Mbps
*.host7.eth[0].bitrate = 1000Mbps
*.switch7.eth[0].bitrate = 1000Mbps
*.switch7.eth[1].bitrate = 1300Mbps
*.switch7.eth[2].bitrate = 1400Mbps
*.switch7.eth[3].bitrate = 2000Mbps
*.switch7.eth[4].bitrate = 1400Mbps
*.switch7.eth[5].bitrate = 1800Mbps
*.switch7.eth[6].bitrate = 1600Mbps
*.switch7.eth[7].bitrate = 1700Mbps
*.switch7.eth[8].bitrate = 2000Mbps
*.switch7.eth[9].bitrate = 1700Mbps
*.switch7.eth[10].bitrate = 1700Mbps
*.switch7.eth[11].bitrate = 1800Mbps
*.switch7.eth[12].bitrate = 1800Mbps
*.switch7.eth[13].bitrate = 2000Mbps
*.switch7.eth[14].bitrate = 1800Mbps
*.switch7.eth[15].bitrate = 1500Mbps
*.switch7.eth[16].bitrate = 2200Mbps
*.switch7.eth[17].bitrate = 2400Mbps
*.switch7.eth[18].bitrate = 1600Mbps
*.host8.eth[0].bitrate = 1000Mbps
*.switch8.eth[0].bitrate = 1000Mbps
*.switch8.eth[1].bitrate = 2200Mbps
*.switch8.eth[2].bitrate = 2200Mbps
*.switch8.eth[3].bitrate = 2000Mbps
*.switch8.eth[4].bitrate = 1200Mbps
*.switch8.eth[5].bitrate = 2100Mbps
*.switch8.eth[6].bitrate = 1900Mbps
*.switch8.eth[7].bitrate = 2200Mbps
*.switch8.eth[8].bitrate = 1600Mbps
*.switch8.eth[9].bitrate = 1200Mbps
*.switch8.eth[10].bitrate = 1800Mbps
*.switch8.eth[11].bitrate = 2000Mbps
*.switch8.eth[12].bitrate = 1400Mbps
*.switch8.eth[13].bitrate = 1800Mbps
*.switch8.eth[14].bitrate = 1400Mbps
*.switch8.eth[15].bitrate = 1400Mbps
*.switch8.eth[16].bitrate = 2200Mbps
*.host9.eth[0].bitrate = 1000Mbps
*.switch9.eth[0].bitrate = 1000Mbps
*.switch9.eth[1].bitrate = 2100Mbps
*.switch9.eth[2].bitrate = 2000Mbps
*.switch9.eth[3].bitrate = 2000Mbps
*.switch9.eth[4].bitrate = 2400Mbps
*.switch9.eth[5].bitrate = 1700Mbps
*.switch9.eth[6].bitrate = 2000Mbps
*.switch9.eth[7].bitrate = 2400Mbps
*.switch9.eth[8].bitrate = 1700Mbps
*.switch9.eth[9].bitrate = 2300Mbps
*.switch9.eth[10].bitrate = 1400Mbps
*.switch9.eth[11].bitrate = 1700Mbps
*.switch9.eth[12].bitrate = 1500Mbps
*.switch9.eth[13].bitrate = 1800Mbps
*.switch9.eth[14].bitrate = 2400Mbps
*.switch9.eth[15].bitrate = 1800Mbps
*.switch9.eth[16].bitrate = 1300Mbps
*.host10.eth[0].bitrate = 1000Mbps
*.switch10.eth[0].bitrate = 1000Mbps
*.switch10.eth[1].bitrate = 1500Mbps
*.switch10.eth[2].bitrate = 1800Mbps
*.switch10.eth[3].bitrate = 1800Mbps
*.switch10.eth[4].bitrate = 2400Mbps
*.switch10.eth[5].bitrate = 1400Mbps
*.switch10.eth[6].bitrate = 1400Mbps
*.switch10.eth[7].bitrate = 1300Mbps
*.host11.eth[0].bitrate = 1000Mbps
*.switch11.eth[0].bitrate = 1000Mbps
*.switch11.eth[1].bitrate = 1600Mbps
*.switch11.eth[2].bitrate = 2300Mbps
*.switch11.eth[3].bitrate = 1200Mbps
*.switch11.eth[4].bitrate = 2000Mbps
*.switch11.eth[5].bitrate = 1400Mbps
*.switch11.eth[6].bitrate = 2400Mbps
*.switch11.eth[7].bitrate = 2100Mbps
*.switch11.eth[8].bitrate = 1600Mbps
*.switch11.eth[9].bitrate = 2200Mbps
*.switch11.eth[10].bitrate = 1800Mbps
*.switch11.eth[11].bitrate = 1400Mbps
*.switch11.eth[12].bitrate = 1700Mbps
*.switch11.eth[13].bitrate = 1700Mbps
*.switch11.eth[14].bitrate = 1900Mbps
*.switch11.eth[15].bitrate = 1700Mbps
*.host12.eth[0].bitrate = 1000Mbps
*.switch12.eth[0].bitrate = 1000Mbps
*.switch12.eth[1].bitrate = 1800Mbps
*.switch12.eth[2].bitrate = 1700Mbps
*.switch12.eth[3].bitrate = 1700Mbps
*.switch12.eth[4].bitrate = 1800Mbps
*.switch12.eth[5].bitrate = 1400Mbps
*.switch12.eth[6].bitrate = 1800Mbps
*.switch12.eth[7].bitrate = 1800Mbps
*.switch12.eth[8].bitrate = 1700Mbps
*.switch12.eth[9].bitrate = 1900Mbps
*.switch12.eth[10].bitrate = 1900Mbps
*.switch12.eth[11].bitrate = 1400Mbps
*.host13.eth[0].bitrate = 1000Mbps
*.switch13.eth[0].bitrate = 1000Mbps
*.switch13.eth[1].bitrate = 1400Mbps
*.switch13.eth[2].bitrate = 1900Mbps
*.switch13.eth[3].bitrate = 1300Mbps
*.switch13.eth[4].bitrate = 2300Mbps
*.switch13.eth[5].bitrate = 1800Mbps
*.switch13.eth[6].bitrate = 1400Mbps
*.switch13.eth[7].bitrate = 1700Mbps
*.switch13.eth[8].bitrate = 2200Mbps
*.switch13.eth[9].bitrate = 2400Mbps
*.switch13.eth[10].bitrate = 1900Mbps
*.switch13.eth[11].bitrate = 2400Mbps
*.switch13.eth[12].bitrate = 1500Mbps
*.host14.eth[0].bitrate = 1000Mbps
*.switch14.eth[0].bitrate = 1000Mbps
*.switch14.eth[1].bitrate = 1200Mbps
*.switch14.eth[2].bitrate = 2000Mbps
*.switch14.eth[3].bitrate = 1800Mbps
*.switch14.eth[4].bitrate = 2400Mbps
*.switch14.eth[5].bitrate = 1700Mbps
*.switch14.eth[6].bitrate = 2000Mbps
*.switch14.eth[7].bitrate = 1400Mbps
*.switch14.eth[8].bitrate = 1900Mbps
*.switch14.eth[9].bitrate = 1900Mbps
*.switch14.eth[10].bitrate = 2400Mbps
*.switch14.eth[11].bitrate = 1400Mbps
*.switch14.eth[12].bitrate = 1500Mbps
*.switch14.eth[13].bitrate = 2200Mbps
*.switch14.eth[14].bitrate = 1400Mbps
*.switch14.eth[15].bitrate = 1300Mbps
*.switch14.eth[16].bitrate = 1500Mbps
*.switch14.eth[17].bitrate = 1600Mbps
*.switch14.eth[18].bitrate = 2200Mbps
*.switch14.eth[19].bitrate = 1300Mbps
*.switch14.eth[20].bitrate = 1300Mbps
*.switch14.eth[21].bitrate = 1700Mbps
*.switch14.eth[22].bitrate = 1400Mbps
*.switch14.eth[23].bitrate = 1500Mbps
*.host0.numApps = 20
*.host0.app[0].typename = "UdpBasicApp"
*.host0.app[0].destAddresses = "host2"
*.host0.app[0].source.packetNameFormat = "%M-%m-%c"
*.host0.app[0].source.displayStringTextFormat = "sent %p pk (%l)"
*.host0.app[0].messageLength = 18B
*.host0.app[0].sendInterval = 1ms
*.host0.app[0].startTime = 7ms
*.host0.app[0].stopTime = 27ms
*.host0.app[0].display-name = "type2_0"
*.host0.app[0].destPort = 1000
*.host0.app[1].typename = "UdpBasicApp"
*.host0.app[1].destAddresses = "host2"
*.host0.app[1].source.packetNameFormat = "%M-%m-%c"
*.host0.app[1].source.displayStringTextFormat = "sent %p pk (%l)"
*.host0.app[1].messageLength = 18B
*.host0.app[1].sendInterval = 1ms
*.host0.app[1].startTime = 52ms
*.host0.app[1].stopTime = 58ms
*.host0.app[1].display-name = "type2_0"
*.host0.app[1].destPort = 1000
*.host0.app[2].typename = "UdpBasicApp"
*.host0.app[2].destAddresses = "host2"
*.host0.app[2].source.packetNameFormat = "%M-%m-%c"
*.host0.app[2].source.displayStringTextFormat = "sent %p pk (%l)"
*.host0.app[2].messageLength = 18B
*.host0.app[2].sendInterval = 1ms
*.host0.app[2].startTime = 63ms
*.host0.app[2].stopTime = 67ms
*.host0.app[2].display-name = "type2_0"
*.host0.app[2].destPort = 1000
*.host0.app[3].typename = "UdpBasicApp"
*.host0.app[3].destAddresses = "host2"
*.host0.app[3].source.packetNameFormat = "%M-%m-%c"
*.host0.app[3].source.displayStringTextFormat = "sent %p pk (%l)"
*.host0.app[3].messageLength = 18B
*.host0.app[3].sendInterval = 1ms
*.host0.app[3].startTime = 71ms
*.host0.app[3].stopTime = 79ms
*.host0.app[3].display-name = "type2_0"
*.host0.app[3].destPort = 1000
*.host0.app[4].typename = "UdpBasicApp"
*.host0.app[4].destAddresses = "host2"
*.host0.app[4].source.packetNameFormat = "%M-%m-%c"
*.host0.app[4].source.displayStringTextFormat = "sent %p pk (%l)"
*.host0.app[4].messageLength = 18B
*.host0.app[4].sendInterval = 1ms
*.host0.app[4].startTime = 88ms
*.host0.app[4].stopTime = 91ms
*.host0.app[4].display-name = "type2_0"
*.host0.app[4].destPort = 1000
*.host0.app[5].typename = "UdpBasicApp"
*.host0.app[5].destAddresses = "host13"
*.host0.app[5].source.packetNameFormat = "%M-%m-%c"
*.host0.app[5].source.displayStringTextFormat = "sent %p pk (%l)"
*.host0.app[5].messageLength = 14B
*.host0.app[5].sendInterval = 1ms
*.host0.app[5].startTime = 1ms
*.host0.app[5].stopTime = 4ms
*.host0.app[5].display-name = "type2_2"
*.host0.app[5].destPort = 1001
*.host0.app[6].typename = "UdpBasicApp"
*.host0.app[6].destAddresses = "host13"
*.host0.app[6].source.packetNameFormat = "%M-%m-%c"
*.host0.app[6].source.displayStringTextFormat = "sent %p pk (%l)"
*.host0.app[6].messageLength = 14B
*.host0.app[6].sendInterval = 1ms
*.host0.app[6].startTime = 30ms
*.host0.app[6].stopTime = 62ms
*.host0.app[6].display-name = "type2_2"
*.host0.app[6].destPort = 1001
*.host0.app[7].typename = "UdpBasicApp"
*.host0.app[7].destAddresses = "host13"
*.host0.app[7].source.packetNameFormat = "%M-%m-%c"
*.host0.app[7].source.displayStringTextFormat = "sent %p pk (%l)"
*.host0.app[7].messageLength = 14B
*.host0.app[7].sendInterval = 1ms
*.host0.app[7].startTime = 80ms
*.host0.app[7].stopTime = 87ms
*.host0.app[7].display-name = "type2_2"
*.host0.app[7].destPort = 1001
*.host0.app[8].typename = "UdpBasicApp"
*.host0.app[8].destAddresses = "host6"
*.host0.app[8].source.packetNameFormat = "%M-%m-%c"
*.host0.app[8].source.displayStringTextFormat = "sent %p pk (%l)"
*.host0.app[8].messageLength = 21B
*.host0.app[8].sendInterval = 1ms
*.host0.app[8].startTime = 1ms
*.host0.app[8].stopTime = 4ms
*.host0.app[8].display-name = "type2_9"
*.host0.app[8].destPort = 1002
*.host0.app[9].typename = "UdpBasicApp"
*.host0.app[9].destAddresses = "host6"
*.host0.app[9].source.packetNameFormat = "%M-%m-%c"
*.host0.app[9].source.displayStringTextFormat = "sent %p pk (%l)"
*.host0.app[9].messageLength = 21B
*.host0.app[9].sendInterval = 1ms
*.host0.app[9].startTime = 8ms
*.host0.app[9].stopTime = 29ms
*.host0.app[9].display-name = "type2_9"
*.host0.app[9].destPort = 1002
*.host0.app[10].typename = "UdpBasicApp"
*.host0.app[10].destAddresses = "host6"
*.host0.app[10].source.packetNameFormat = "%M-%m-%c"
*.host0.app[10].source.displayStringTextFormat = "sent %p pk (%l)"
*.host0.app[10].messageLength = 21B
*.host0.app[10].sendInterval = 1ms
*.host0.app[10].startTime = 36ms
*.host0.app[10].stopTime = 41ms
*.host0.app[10].display-name = "type2_9"
*.host0.app[10].destPort = 1002
*.host0.app[11].typename = "UdpBasicApp"
*.host0.app[11].destAddresses = "host6"
*.host0.app[11].source.packetNameFormat = "%M-%m-%c"
*.host0.app[11].source.displayStringTextFormat = "sent %p pk (%l)"
*.host0.app[11].messageLength = 21B
*.host0.app[11].sendInterval = 1ms
*.host0.app[11].startTime = 58ms
*.host0.app[11].stopTime = 71ms
*.host0.app[11].display-name = "type2_9"
*.host0.app[11].destPort = 1002
*.host0.app[12].typename = "UdpBasicApp"
*.host0.app[12].destAddresses = "host6"
*.host0.app[12].source.packetNameFormat = "%M-%m-%c"
*.host0.app[12].source.displayStringTextFormat = "sent %p pk (%l)"
*.host0.app[12].messageLength = 21B
*.host0.app[12].sendInterval = 1ms
*.host0.app[12].startTime = 72ms
*.host0.app[12].stopTime = 77ms
*.host0.app[12].display-name = "type2_9"
*.host0.app[12].destPort = 1002
*.host0.app[13].typename = "UdpBasicApp"
*.host0.app[13].destAddresses = "host6"
*.host0.app[13].source.packetNameFormat = "%M-%m-%c"
*.host0.app[13].source.displayStringTextFormat = "sent %p pk (%l)"
*.host0.app[13].messageLength = 21B
*.host0.app[13].sendInterval = 1ms
*.host0.app[13].startTime = 94ms
*.host0.app[13].stopTime = 100ms
*.host0.app[13].display-name = "type2_9"
*.host0.app[13].destPort = 1002
*.host0.app[14].typename = "UdpBasicApp"
*.host0.app[14].destAddresses = "host5"
*.host0.app[14].source.packetNameFormat = "%M-%m-%c"
*.host0.app[14].source.displayStringTextFormat = "sent %p pk (%l)"
*.host0.app[14].messageLength = 23B
*.host0.app[14].sendInterval = 1ms
*.host0.app[14].startTime = 10ms
*.host0.app[14].stopTime = 14ms
*.host0.app[14].display-name = "type2_12"
*.host0.app[14].destPort = 1001
*.host0.app[15].typename = "UdpBasicApp"
*.host0.app[15].destAddresses = "host5"
*.host0.app[15].source.packetNameFormat = "%M-%m-%c"
*.host0.app[15].source.displayStringTextFormat = "sent %p pk (%l)"
*.host0.app[15].messageLength = 23B
*.host0.app[15].sendInterval = 1ms
*.host0.app[15].startTime = 15ms
*.host0.app[15].stopTime = 17ms
*.host0.app[15].display-name = "type2_12"
*.host0.app[15].destPort = 1001
*.host0.app[16].typename = "UdpBasicApp"
*.host0.app[16].destAddresses = "host5"
*.host0.app[16].source.packetNameFormat = "%M-%m-%c"
*.host0.app[16].source.displayStringTextFormat = "sent %p pk (%l)"
*.host0.app[16].messageLength = 23B
*.host0.app[16].sendInterval = 1ms
*.host0.app[16].startTime = 20ms
*.host0.app[16].stopTime = 21ms
*.host0.app[16].display-name = "type2_12"
*.host0.app[16].destPort = 1001
*.host0.app[17].typename = "UdpBasicApp"
*.host0.app[17].destAddresses = "host5"
*.host0.app[17].source.packetNameFormat = "%M-%m-%c"
*.host0.app[17].source.displayStringTextFormat = "sent %p pk (%l)"
*.host0.app[17].messageLength = 23B
*.host0.app[17].sendInterval = 1ms
*.host0.app[17].startTime = 46ms
*.host0.app[17].stopTime = 59ms
*.host0.app[17].display-name = "type2_12"
*.host0.app[17].destPort = 1001
*.host0.app[18].typename = "UdpBasicApp"
*.host0.app[18].destAddresses = "host5"
*.host0.app[18].source.packetNameFormat = "%M-%m-%c"
*.host0.app[18].source.displayStringTextFormat = "sent %p pk (%l)"
*.host0.app[18].messageLength = 23B
*.host0.app[18].sendInterval = 1ms
*.host0.app[18].startTime = 62ms
*.host0.app[18].stopTime = 66ms
*.host0.app[18].display-name = "type2_12"
*.host0.app[18].destPort = 1001
*.host0.app[19].typename = "UdpBasicApp"
*.host0.app[19].destAddresses = "host5"
*.host0.app[19].source.packetNameFormat = "%M-%m-%c"
*.host0.app[19].source.displayStringTextFormat = "sent %p pk (%l)"
*.host0.app[19].messageLength = 23B
*.host0.app[19].sendInterval = 1ms
*.host0.app[19].startTime = 92ms
*.host0.app[19].stopTime = 94ms
*.host0.app[19].display-name = "type2_12"
*.host0.app[19].destPort = 1001
*.host1.numApps = 4
*.host1.app[0].typename = "UdpSinkApp"
*.host1.app[0].io.localPort = 1000
*.host1.app[1].typename = "UdpSinkApp"
*.host1.app[1].io.localPort = 1001
*.host1.app[2].typename = "UdpSourceApp"
*.host1.app[2].io.destAddress = "host11"
*.host1.app[2].source.packetNameFormat = "%M-%m-%c"
*.host1.app[2].source.displayStringTextFormat = "sent %p pk (%l)"
*.host1.app[2].source.packetLength = 19B
*.host1.app[2].source.productionInterval = 1ms
*.host1.app[2].display-name = "type1_4"
*.host1.app[2].io.destPort = 1000
*.host1.app[3].typename = "UdpSinkApp"
*.host1.app[3].io.localPort = 1002
*.host2.numApps = 2
*.host2.app[0].typename = "UdpSourceApp"
*.host2.app[0].io.destAddress = "host8"
*.host2.app[0].source.packetNameFormat = "%M-%m-%c"
*.host2.app[0].source.displayStringTextFormat = "sent %p pk (%l)"
*.host2.app[0].source.packetLength = 21B
*.host2.app[0].source.productionInterval = 1ms
*.host2.app[0].display-name = "type1_7"
*.host2.app[0].io.destPort = 1002
*.host2.app[1].typename = "UdpSinkApp"
*.host2.app[1].io.localPort = 1000
*.host3.numApps = 5
*.host3.app[0].typename = "UdpSourceApp"
*.host3.app[0].io.destAddress = "host8"
*.host3.app[0].source.packetNameFormat = "%M-%m-%c"
*.host3.app[0].source.displayStringTextFormat = "sent %p pk (%l)"
*.host3.app[0].source.packetLength = 17B
*.host3.app[0].source.productionInterval = 1ms
*.host3.app[0].display-name = "type1_1"
*.host3.app[0].io.destPort = 1000
*.host3.app[1].typename = "UdpSourceApp"
*.host3.app[1].io.destAddress = "host1"
*.host3.app[1].source.packetNameFormat = "%M-%m-%c"
*.host3.app[1].source.displayStringTextFormat = "sent %p pk (%l)"
*.host3.app[1].source.packetLength = 12B
*.host3.app[1].source.productionInterval = 1ms
*.host3.app[1].display-name = "type1_2"
*.host3.app[1].io.destPort = 1001
*.host3.app[2].typename = "UdpBasicApp"
*.host3.app[2].destAddresses = "host8"
*.host3.app[2].source.packetNameFormat = "%M-%m-%c"
*.host3.app[2].source.displayStringTextFormat = "sent %p pk (%l)"
*.host3.app[2].messageLength = 14B
*.host3.app[2].sendInterval = 1ms
*.host3.app[2].startTime = 6ms
*.host3.app[2].stopTime = 38ms
*.host3.app[2].display-name = "type2_1"
*.host3.app[2].destPort = 1003
*.host3.app[3].typename = "UdpBasicApp"
*.host3.app[3].destAddresses = "host8"
*.host3.app[3].source.packetNameFormat = "%M-%m-%c"
*.host3.app[3].source.displayStringTextFormat = "sent %p pk (%l)"
*.host3.app[3].messageLength = 14B
*.host3.app[3].sendInterval = 1ms
*.host3.app[3].startTime = 47ms
*.host3.app[3].stopTime = 71ms
*.host3.app[3].display-name = "type2_1"
*.host3.app[3].destPort = 1003
*.host3.app[4].typename = "UdpBasicApp"
*.host3.app[4].destAddresses = "host8"
*.host3.app[4].source.packetNameFormat = "%M-%m-%c"
*.host3.app[4].source.displayStringTextFormat = "sent %p pk (%l)"
*.host3.app[4].messageLength = 14B
*.host3.app[4].sendInterval = 1ms
*.host3.app[4].startTime = 79ms
*.host3.app[4].stopTime = 100ms
*.host3.app[4].display-name = "type2_1"
*.host3.app[4].destPort = 1003
*.host4.numApps = 2
*.host4.app[0].typename = "UdpSinkApp"
*.host4.app[0].io.localPort = 1000
*.host4.app[1].typename = "UdpSinkApp"
*.host4.app[1].io.localPort = 1001
*.host5.numApps = 11
*.host5.app[0].typename = "UdpSourceApp"
*.host5.app[0].io.destAddress = "host1"
*.host5.app[0].source.packetNameFormat = "%M-%m-%c"
*.host5.app[0].source.displayStringTextFormat = "sent %p pk (%l)"
*.host5.app[0].source.packetLength = 17B
*.host5.app[0].source.productionInterval = 1ms
*.host5.app[0].display-name = "type1_0"
*.host5.app[0].io.destPort = 1000
*.host5.app[1].typename = "UdpSourceApp"
*.host5.app[1].io.destAddress = "host13"
*.host5.app[1].source.packetNameFormat = "%M-%m-%c"
*.host5.app[1].source.displayStringTextFormat = "sent %p pk (%l)"
*.host5.app[1].source.packetLength = 16B
*.host5.app[1].source.productionInterval = 1ms
*.host5.app[1].display-name = "type1_3"
*.host5.app[1].io.destPort = 1000
*.host5.app[2].typename = "UdpSinkApp"
*.host5.app[2].io.localPort = 1000
*.host5.app[3].typename = "UdpSourceApp"
*.host5.app[3].io.destAddress = "host6"
*.host5.app[3].source.packetNameFormat = "%M-%m-%c"
*.host5.app[3].source.displayStringTextFormat = "sent %p pk (%l)"
*.host5.app[3].source.packetLength = 14B
*.host5.app[3].source.productionInterval = 1ms
*.host5.app[3].display-name = "type1_12"
*.host5.app[3].io.destPort = 1001
*.host5.app[4].typename = "UdpBasicApp"
*.host5.app[4].destAddresses = "host10"
*.host5.app[4].source.packetNameFormat = "%M-%m-%c"
*.host5.app[4].source.displayStringTextFormat = "sent %p pk (%l)"
*.host5.app[4].messageLength = 12B
*.host5.app[4].sendInterval = 1ms
*.host5.app[4].startTime = 5ms
*.host5.app[4].stopTime = 14ms
*.host5.app[4].display-name = "type2_8"
*.host5.app[4].destPort = 1000
*.host5.app[5].typename = "UdpBasicApp"
*.host5.app[5].destAddresses = "host10"
*.host5.app[5].source.packetNameFormat = "%M-%m-%c"
*.host5.app[5].source.displayStringTextFormat = "sent %p pk (%l)"
*.host5.app[5].messageLength = 12B
*.host5.app[5].sendInterval = 1ms
*.host5.app[5].startTime = 31ms
*.host5.app[5].stopTime = 32ms
*.host5.app[5].display-name = "type2_8"
*.host5.app[5].destPort = 1000
*.host5.app[6].typename = "UdpBasicApp"
*.host5.app[6].destAddresses = "host10"
*.host5.app[6].source.packetNameFormat = "%M-%m-%c"
*.host5.app[6].source.displayStringTextFormat = "sent %p pk (%l)"
*.host5.app[6].messageLength = 12B
*.host5.app[6].sendInterval = 1ms
*.host5.app[6].startTime = 42ms
*.host5.app[6].stopTime = 43ms
*.host5.app[6].display-name = "type2_8"
*.host5.app[6].destPort = 1000
*.host5.app[7].typename = "UdpBasicApp"
*.host5.app[7].destAddresses = "host10"
*.host5.app[7].source.packetNameFormat = "%M-%m-%c"
*.host5.app[7].source.displayStringTextFormat = "sent %p pk (%l)"
*.host5.app[7].messageLength = 12B
*.host5.app[7].sendInterval = 1ms
*.host5.app[7].startTime = 46ms
*.host5.app[7].stopTime = 65ms
*.host5.app[7].display-name = "type2_8"
*.host5.app[7].destPort = 1000
*.host5.app[8].typename = "UdpBasicApp"
*.host5.app[8].destAddresses = "host10"
*.host5.app[8].source.packetNameFormat = "%M-%m-%c"
*.host5.app[8].source.displayStringTextFormat = "sent %p pk (%l)"
*.host5.app[8].messageLength = 12B
*.host5.app[8].sendInterval = 1ms
*.host5.app[8].startTime = 68ms
*.host5.app[8].stopTime = 72ms
*.host5.app[8].display-name = "type2_8"
*.host5.app[8].destPort = 1000
*.host5.app[9].typename = "UdpBasicApp"
*.host5.app[9].destAddresses = "host10"
*.host5.app[9].source.packetNameFormat = "%M-%m-%c"
*.host5.app[9].source.displayStringTextFormat = "sent %p pk (%l)"
*.host5.app[9].messageLength = 12B
*.host5.app[9].sendInterval = 1ms
*.host5.app[9].startTime = 73ms
*.host5.app[9].stopTime = 100ms
*.host5.app[9].display-name = "type2_8"
*.host5.app[9].destPort = 1000
*.host5.app[10].typename = "UdpSinkApp"
*.host5.app[10].io.localPort = 1001
*.host6.numApps = 13
*.host6.app[0].typename = "UdpSourceApp"
*.host6.app[0].io.destAddress = "host5"
*.host6.app[0].source.packetNameFormat = "%M-%m-%c"
*.host6.app[0].source.displayStringTextFormat = "sent %p pk (%l)"
*.host6.app[0].source.packetLength = 14B
*.host6.app[0].source.productionInterval = 1ms
*.host6.app[0].display-name = "type1_9"
*.host6.app[0].io.destPort = 1000
*.host6.app[1].typename = "UdpSinkApp"
*.host6.app[1].io.localPort = 1000
*.host6.app[2].typename = "UdpSinkApp"
*.host6.app[2].io.localPort = 1001
*.host6.app[3].typename = "UdpSinkApp"
*.host6.app[3].io.localPort = 1002
*.host6.app[4].typename = "UdpBasicApp"
*.host6.app[4].destAddresses = "host12"
*.host6.app[4].source.packetNameFormat = "%M-%m-%c"
*.host6.app[4].source.displayStringTextFormat = "sent %p pk (%l)"
*.host6.app[4].messageLength = 21B
*.host6.app[4].sendInterval = 1ms
*.host6.app[4].startTime = 1ms
*.host6.app[4].stopTime = 3ms
*.host6.app[4].display-name = "type2_10"
*.host6.app[4].destPort = 1001
*.host6.app[5].typename = "UdpBasicApp"
*.host6.app[5].destAddresses = "host12"
*.host6.app[5].source.packetNameFormat = "%M-%m-%c"
*.host6.app[5].source.displayStringTextFormat = "sent %p pk (%l)"
*.host6.app[5].messageLength = 21B
*.host6.app[5].sendInterval = 1ms
*.host6.app[5].startTime = 5ms
*.host6.app[5].stopTime = 7ms
*.host6.app[5].display-name = "type2_10"
*.host6.app[5].destPort = 1001
*.host6.app[6].typename = "UdpBasicApp"
*.host6.app[6].destAddresses = "host12"
*.host6.app[6].source.packetNameFormat = "%M-%m-%c"
*.host6.app[6].source.displayStringTextFormat = "sent %p pk (%l)"
*.host6.app[6].messageLength = 21B
*.host6.app[6].sendInterval = 1ms
*.host6.app[6].startTime = 12ms
*.host6.app[6].stopTime = 13ms
*.host6.app[6].display-name = "type2_10"
*.host6.app[6].destPort = 1001
*.host6.app[7].typename = "UdpBasicApp"
*.host6.app[7].destAddresses = "host12"
*.host6.app[7].source.packetNameFormat = "%M-%m-%c"
*.host6.app[7].source.displayStringTextFormat = "sent %p pk (%l)"
*.host6.app[7].messageLength = 21B
*.host6.app[7].sendInterval = 1ms
*.host6.app[7].startTime = 17ms
*.host6.app[7].stopTime = 18ms
*.host6.app[7].display-name = "type2_10"
*.host6.app[7].destPort = 1001
*.host6.app[8].typename = "UdpBasicApp"
*.host6.app[8].destAddresses = "host12"
*.host6.app[8].source.packetNameFormat = "%M-%m-%c"
*.host6.app[8].source.displayStringTextFormat = "sent %p pk (%l)"
*.host6.app[8].messageLength = 21B
*.host6.app[8].sendInterval = 1ms
*.host6.app[8].startTime = 21ms
*.host6.app[8].stopTime = 25ms
*.host6.app[8].display-name = "type2_10"
*.host6.app[8].destPort = 1001
*.host6.app[9].typename = "UdpBasicApp"
*.host6.app[9].destAddresses = "host12"
*.host6.app[9].source.packetNameFormat = "%M-%m-%c"
*.host6.app[9].source.displayStringTextFormat = "sent %p pk (%l)"
*.host6.app[9].messageLength = 21B
*.host6.app[9].sendInterval = 1ms
*.host6.app[9].startTime = 33ms
*.host6.app[9].stopTime = 54ms
*.host6.app[9].display-name = "type2_10"
*.host6.app[9].destPort = 1001
*.host6.app[10].typename = "UdpBasicApp"
*.host6.app[10].destAddresses = "host12"
*.host6.app[10].source.packetNameFormat = "%M-%m-%c"
*.host6.app[10].source.displayStringTextFormat = "sent %p pk (%l)"
*.host6.app[10].messageLength = 21B
*.host6.app[10].sendInterval = 1ms
*.host6.app[10].startTime = 59ms
*.host6.app[10].stopTime = 63ms
*.host6.app[10].display-name = "type2_10"
*.host6.app[10].destPort = 1001
*.host6.app[11].typename = "UdpBasicApp"
*.host6.app[11].destAddresses = "host12"
*.host6.app[11].source.packetNameFormat = "%M-%m-%c"
*.host6.app[11].source.displayStringTextFormat = "sent %p pk (%l)"
*.host6.app[11].messageLength = 21B
*.host6.app[11].sendInterval = 1ms
*.host6.app[11].startTime = 66ms
*.host6.app[11].stopTime = 68ms
*.host6.app[11].display-name = "type2_10"
*.host6.app[11].destPort = 1001
*.host6.app[12].typename = "UdpBasicApp"
*.host6.app[12].destAddresses = "host12"
*.host6.app[12].source.packetNameFormat = "%M-%m-%c"
*.host6.app[12].source.displayStringTextFormat = "sent %p pk (%l)"
*.host6.app[12].messageLength = 21B
*.host6.app[12].sendInterval = 1ms
*.host6.app[12].startTime = 79ms
*.host6.app[12].stopTime = 82ms
*.host6.app[12].display-name = "type2_10"
*.host6.app[12].destPort = 1001
*.host7.numApps = 2
*.host7.app[0].typename = "UdpSinkApp"
*.host7.app[0].io.localPort = 1000
*.host7.app[1].typename = "UdpSinkApp"
*.host7.app[1].io.localPort = 1001
*.host8.numApps = 4
*.host8.app[0].typename = "UdpSinkApp"
*.host8.app[0].io.localPort = 1000
*.host8.app[1].typename = "UdpSinkApp"
*.host8.app[1].io.localPort = 1001
*.host8.app[2].typename = "UdpSinkApp"
*.host8.app[2].io.localPort = 1002
*.host8.app[3].typename = "UdpSinkApp"
*.host8.app[3].io.localPort = 1003
*.host9.numApps = 2
*.host9.app[0].typename = "UdpSinkApp"
*.host9.app[0].io.localPort = 1000
*.host9.app[1].typename = "UdpSourceApp"
*.host9.app[1].io.destAddress = "host11"
*.host9.app[1].source.packetNameFormat = "%M-%m-%c"
*.host9.app[1].source.displayStringTextFormat = "sent %p pk (%l)"
*.host9.app[1].source.packetLength = 22B
*.host9.app[1].source.productionInterval = 1ms
*.host9.app[1].display-name = "type1_11"
*.host9.app[1].io.destPort = 1001
*.host10.numApps = 12
*.host10.app[0].typename = "UdpBasicApp"
*.host10.app[0].destAddresses = "host12"
*.host10.app[0].source.packetNameFormat = "%M-%m-%c"
*.host10.app[0].source.displayStringTextFormat = "sent %p pk (%l)"
*.host10.app[0].messageLength = 21B
*.host10.app[0].sendInterval = 1ms
*.host10.app[0].startTime = 1ms
*.host10.app[0].stopTime = 17ms
*.host10.app[0].display-name = "type2_6"
*.host10.app[0].destPort = 1000
*.host10.app[1].typename = "UdpBasicApp"
*.host10.app[1].destAddresses = "host12"
*.host10.app[1].source.packetNameFormat = "%M-%m-%c"
*.host10.app[1].source.displayStringTextFormat = "sent %p pk (%l)"
*.host10.app[1].messageLength = 21B
*.host10.app[1].sendInterval = 1ms
*.host10.app[1].startTime = 23ms
*.host10.app[1].stopTime = 27ms
*.host10.app[1].display-name = "type2_6"
*.host10.app[1].destPort = 1000
*.host10.app[2].typename = "UdpBasicApp"
*.host10.app[2].destAddresses = "host12"
*.host10.app[2].source.packetNameFormat = "%M-%m-%c"
*.host10.app[2].source.displayStringTextFormat = "sent %p pk (%l)"
*.host10.app[2].messageLength = 21B
*.host10.app[2].sendInterval = 1ms
*.host10.app[2].startTime = 45ms
*.host10.app[2].stopTime = 57ms
*.host10.app[2].display-name = "type2_6"
*.host10.app[2].destPort = 1000