[General]
network = TSN_multipath
sim-time-limit = 100ms
*.macForwardingTableConfigurator.typename = ""
*.*.hasStreamRedundancy = true
*.*.bridging.streamRelay.typename = "StreamRelayLayer"
*.*.bridging.streamCoder.typename = "StreamCoderLayer"
*.streamRedundancyConfigurator.typename = "StreamRedundancyConfigurator"
*.host0.eth[0].bitrate = 1000Mbps
*.switch0.eth[0].bitrate = 1000Mbps
*.switch0.eth[1].bitrate = 1300Mbps
*.switch0.eth[2].bitrate = 1400Mbps
*.switch0.eth[3].bitrate = 1600Mbps
*.switch0.eth[4].bitrate = 1500Mbps
*.switch0.eth[5].bitrate = 1300Mbps
*.switch0.eth[6].bitrate = 1600Mbps
*.switch0.eth[7].bitrate = 1600Mbps
*.switch0.eth[8].bitrate = 1300Mbps
*.switch0.eth[9].bitrate = 2000Mbps
*.switch0.eth[10].bitrate = 2400Mbps
*.switch0.eth[11].bitrate = 2200Mbps
*.switch0.eth[12].bitrate = 1800Mbps
*.switch0.eth[13].bitrate = 1600Mbps
*.switch0.eth[14].bitrate = 2000Mbps
*.switch0.eth[15].bitrate = 1700Mbps
*.switch0.eth[16].bitrate = 1500Mbps
*.switch0.eth[17].bitrate = 1700Mbps
*.switch0.eth[18].bitrate = 1800Mbps
*.switch0.eth[19].bitrate = 2200Mbps
*.switch0.eth[20].bitrate = 2200Mbps
*.switch0.eth[21].bitrate = 2300Mbps
*.host1.eth[0].bitrate = 1000Mbps
*.switch1.eth[0].bitrate = 1000Mbps
*.switch1.eth[1].bitrate = 1300Mbps
*.switch1.eth[2].bitrate = 1800Mbps
*.switch1.eth[3].bitrate = 1500Mbps
*.switch1.eth[4].bitrate = 1400Mbps
*.switch1.eth[5].bitrate = 2200Mbps
*.switch1.eth[6].bitrate = 2000Mbps
*.switch1.eth[7].bitrate = 1900Mbps
*.switch1.eth[8].bitrate = 1400Mbps
*.switch1.eth[9].bitrate = 1600Mbps
*.switch1.eth[10].bitrate = 1200Mbps
*.switch1.eth[11].bitrate = 2100Mbps
*.switch1.eth[12].bitrate = 2000Mbps
*.switch1.eth[13].bitrate = 1600Mbps
*.switch1.eth[14].bitrate = 1200Mbps
*.switch1.eth[15].bitrate = 1400Mbps
*.switch1.eth[16].bitrate = 2100Mbps
*.switch1.eth[17].bitrate = 1700Mbps
*.switch1.eth[18].bitrate = 1900Mbps
*.switch1.eth[19].bitrate = 2100Mbps
*.switch1.eth[20].bitrate = 1400Mbps
*.switch1.eth[21].bitrate = 1800Mbps
*.host2.eth[0].bitrate = 1000Mbps
*.switch2.eth[0].bitrate = 1000Mbps
*.switch2.eth[1].bitrate = 1400Mbps
*.switch2.eth[2].bitrate = 1500Mbps
*.switch2.eth[3].bitrate = 1600Mbps
*.switch2.eth[4].bitrate = 2200Mbps
*.switch2.eth[5].bitrate = 1500Mbps
*.switch2.eth[6].bitrate = 2000Mbps
*.switch2.eth[7].bitrate = 1500Mbps
*.switch2.eth[8].bitrate = 2000Mbps
*.switch2.eth[9].bitrate = 2200Mbps
*.switch2.eth[10].bitrate = 2400Mbps
*.switch2.eth[11].bitrate = 1300Mbps
*.host3.eth[0].bitrate = 1000Mbps
*.switch3.eth[0].bitrate = 1000Mbps
*.switch3.eth[1].bitrate = 1600Mbps
*.switch3.eth[2].bitrate = 1400Mbps
*.switch3.eth[3].bitrate = 2000Mbps
*.switch3.eth[4].bitrate = 1200Mbps
*.switch3.eth[5].bitrate = 2200Mbps
*.switch3.eth[6].bitrate = 2100Mbps
*.switch3.eth[7].bitrate = 2100Mbps
*.switch3.eth[8].bitrate = 1800Mbps
*.switch3.eth[9].bitrate = 2000Mbps
*.switch3.eth[10].bitrate = 1300Mbps
*.switch3.eth[11].bitrate = 2300Mbps
*.switch3.eth[12].bitrate = 2100Mbps
*.switch3.eth[13].bitrate = 1600Mbps
*.switch3.eth[14].bitrate = 1600Mbps
*.switch3.eth[15].bitrate = 1400Mbps
*.switch3.eth[16].bitrate = 2400Mbps
*.switch3.eth[17].bitrate = 1800Mbps
*.switch3.eth[18].bitrate = 1700Mbps
*.switch3.eth[19].bitrate = 2100Mbps
*.switch3.eth[20].bitrate = 2400Mbps
*.host4.eth[0].bitrate = 1000Mbps
*.switch4.eth[0].bitrate = 1000Mbps
*.switch4.eth[1].bitrate = 1500Mbps
*.switch4.eth[2].bitrate = 2200Mbps
*.switch4.eth[3].bitrate = 2100Mbps
*.switch4.eth[4].bitrate = 1700Mbps
*.switch4.eth[5].bitrate = 1400Mbps
*.switch4.eth[6].bitrate = 1500Mbps
*.switch4.eth[7].bitrate = 1400Mbps
*.switch4.eth[8].bitrate = 2000Mbps
*.switch4.eth[9].bitrate = 1300Mbps
*.switch4.eth[10].bitrate = 1800Mbps
*.switch4.eth[11].bitrate = 1600Mbps
*.switch4.eth[12].bitrate = 2100Mbps
*.switch4.eth[13].bitrate = 1800Mbps
*.switch4.eth[14].bitrate = 2200Mbps
*.switch4.eth[15].bitrate = 1200Mbps
*.switch4.eth[16].bitrate = 2100Mbps
*.switch4.eth[17].bitrate = 1500Mbps
*.switch4.eth[18].bitrate = 1500Mbps
*.switch4.eth[19].bitrate = 1900Mbps
*.host5.eth[0].bitrate = 1000Mbps
*.switch5.eth[0].bitrate = 1000Mbps
*.switch5.eth[1].bitrate = 1300Mbps
*.switch5.eth[2].bitrate = 2000Mbps
*.switch5.eth[3].bitrate = 2100Mbps
*.switch5.eth[4].bitrate = 2000Mbps
*.switch5.eth[5].bitrate = 1500Mbps
*.switch5.eth[6].bitrate = 2400Mbps
*.switch5.eth[7].bitrate = 2100Mbps
*.switch5.eth[8].bitrate = 2200Mbps
*.switch5.eth[9].bitrate = 2000Mbps
*.switch5.eth[10].bitrate = 1300Mbps
*.switch5.eth[11].bitrate = 2200Mbps
*.switch5.eth[12].bitrate = 1500Mbps
*.switch5.eth[13].bitrate = 2200Mbps
*.switch5.eth[14].bitrate = 1900Mbps
*.host6.eth[0].bitrate = 1000Mbps
*.switch6.eth[0].bitrate = 1000Mbps
*.switch6.eth[1].bitrate = 1900Mbps
*.switch6.eth[2].bitrate = 1300Mbps
*.switch6.eth[3].bitrate = 2200Mbps
*.switch6.eth[4].bitrate = 1700Mbps
*.switch6.eth[5].bitrate = 2100Mbps
*.switch6.eth[6].bitrate = 2000Mbps
*.switch6.eth[7].bitrate = 1800Mbps
*.switch6.eth[8].bitrate = 1500Mbps
*.switch6.eth[9].bitrate = 1900Mbps
*.switch6.eth[10].bitrate = 1500Mbps
*.switch6.eth[11].bitrate = 1300Mbps
*.switch6.eth[12].bitrate = 1300Mbps
*.switch6.eth[13].bitrate = 1600Mbps
*.switch6.eth[14].bitrate = 2400Mbps
*.switch6.eth[15].bitrate = 2000Mbps
*.switch6.eth[16].bitrate = 2200Mbps
*.switch6.eth[17].bitrate = 1600Mbps
*.switch6.eth[18].bitrate = 2400Mbps
*.host7.eth[0].bitrate = 1000Mbps
*.switch7.eth[0].bitrate = 1000Mbps
*.switch7.eth[1].bitrate = 1600Mbps
*.switch7.eth[2].bitrate = 1400Mbps
*.switch7.eth[3].bitrate = 1800Mbps
*.switch7.eth[4].bitrate = 1800Mbps
*.switch7.eth[5].bitrate = 2000Mbps
*.switch7.eth[6].bitrate = 1700Mbps
*.switch7.eth[7].bitrate = 1500Mbps
*.switch7.eth[8].bitrate = 1700Mbps
*.switch7.eth[9].bitrate = 1500Mbps
*.switch7.eth[10].bitrate = 2000Mbps
*.switch7.eth[11].bitrate = 1400Mbps
*.switch7.eth[12].bitrate = 2000Mbps
*.switch7.eth[13].bitrate = 2100Mbps
*.switch7.eth[14].bitrate = 2300Mbps
*.switch7.eth[15].bitrate = 1600Mbps
*.switch7.eth[16].bitrate = 2300Mbps
*.switch7.eth[17].bitrate = 1800Mbps
*.switch7.eth[18].bitrate = 1300Mbps
*.switch7.eth[19].bitrate = 1800Mbps
*.switch7.eth[20].bitrate = 1600Mbps
*.host8.eth[0].bitrate = 1000Mbps
*.switch8.eth[0].bitrate = 1000Mbps
*.switch8.eth[1].bitrate = 1600Mbps
*.switch8.eth[2].bitrate = 1600Mbps
*.switch8.eth[3].bitrate = 2000Mbps
*.switch8.eth[4].bitrate = 1600Mbps
*.switch8.eth[5].bitrate = 1400Mbps
*.switch8.eth[6].bitrate = 1900Mbps
*.switch8.eth[7].bitrate = 2200Mbps
*.switch8.eth[8].bitrate = 1800Mbps
*.switch8.eth[9].bitrate = 1600Mbps
*.switch8.eth[10].bitrate = 2200Mbps
*.switch8.eth[11].bitrate = 1900Mbps
*.host9.eth[0].bitrate = 1000Mbps
*.switch9.eth[0].bitrate = 1000Mbps
*.switch9.eth[1].bitrate = 1300Mbps
*.switch9.eth[2].bitrate = 1300Mbps
*.switch9.eth[3].bitrate = 1500Mbps
*.switch9.eth[4].bitrate = 2000Mbps
*.switch9.eth[5].bitrate = 1800Mbps
*.switch9.eth[6].bitrate = 2000Mbps
*.switch9.eth[7].bitrate = 2100Mbps
*.switch9.eth[8].bitrate = 1900Mbps
*.switch9.eth[9].bitrate = 1600Mbps
*.switch9.eth[10].bitrate = 2200Mbps
*.switch9.eth[11].bitrate = 2200Mbps
*.switch9.eth[12].bitrate = 2300Mbps
*.switch9.eth[13].bitrate = 2300Mbps
*.switch9.eth[14].bitrate = 1600Mbps
*.host10.eth[0].bitrate = 1000Mbps
*.switch10.eth[0].bitrate = 1000Mbps
*.switch10.eth[1].bitrate = 1300Mbps
*.switch10.eth[2].bitrate = 2300Mbps
*.switch10.eth[3].bitrate = 2100Mbps
*.switch10.eth[4].bitrate = 2200Mbps
*.switch10.eth[5].bitrate = 2100Mbps
*.switch10.eth[6].bitrate = 2200Mbps
*.switch10.eth[7].bitrate = 2200Mbps
*.switch10.eth[8].bitrate = 2400Mbps
*.switch10.eth[9].bitrate = 1800Mbps
*.switch10.eth[10].bitrate = 2300Mbps
*.switch10.eth[11].bitrate = 1300Mbps
*.host11.eth[0].bitrate = 1000Mbps
*.switch11.eth[0].bitrate = 1000Mbps
*.switch11.eth[1].bitrate = 2000Mbps
*.switch11.eth[2].bitrate = 1200Mbps
*.switch11.eth[3].bitrate = 1800Mbps
*.switch11.eth[4].bitrate = 1300Mbps
*.switch11.eth[5].bitrate = 1600Mbps
*.switch11.eth[6].bitrate = 2300Mbps
*.switch11.eth[7].bitrate = 2200Mbps
*.switch11.eth[8].bitrate = 2100Mbps
*.switch11.eth[9].bitrate = 2400Mbps
*.switch11.eth[10].bitrate = 1300Mbps
*.switch11.eth[11].bitrate = 1900Mbps
*.switch11.eth[12].bitrate = 1800Mbps
*.switch11.eth[13].bitrate = 1500Mbps
*.switch11.eth[14].bitrate = 2200Mbps
*.host12.eth[0].bitrate = 1000Mbps
*.switch12.eth[0].bitrate = 1000Mbps
*.switch12.eth[1].bitrate = 2400Mbps
*.switch12.eth[2].bitrate = 2100Mbps
*.switch12.eth[3].bitrate = 2100Mbps
*.switch12.eth[4].bitrate = 2200Mbps
*.switch12.eth[5].bitrate = 1500Mbps
*.switch12.eth[6].bitrate = 1300Mbps
*.switch12.eth[7].bitrate = 2300Mbps
*.switch12.eth[8].bitrate = 2400Mbps
*.switch12.eth[9].bitrate = 2200Mbps
*.switch12.eth[10].bitrate = 1400Mbps
*.switch12.eth[11].bitrate = 2400Mbps
*.switch12.eth[12].bitrate = 2400Mbps
*.switch12.eth[13].bitrate = 1800Mbps
*.switch12.eth[14].bitrate = 2300Mbps
*.switch12.eth[15].bitrate = 1500Mbps
*.switch12.eth[16].bitrate = 1200Mbps
*.host13.eth[0].bitrate = 1000Mbps
*.switch13.eth[0].bitrate = 1000Mbps
*.switch13.eth[1].bitrate = 2200Mbps
*.switch13.eth[2].bitrate = 2000Mbps
*.switch13.eth[3].bitrate = 1600Mbps
*.switch13.eth[4].bitrate = 1600Mbps
*.switch13.eth[5].bitrate = 1600Mbps
*.switch13.eth[6].bitrate = 2300Mbps
*.switch13.eth[7].bitrate = 2300Mbps
*.switch13.eth[8].bitrate = 1600Mbps
*.switch13.eth[9].bitrate = 1300Mbps
*.switch13.eth[10].bitrate = 2200Mbps
*.host14.eth[0].bitrate = 1000Mbps
*.switch14.eth[0].bitrate = 1000Mbps
*.switch14.eth[1].bitrate = 1600Mbps
*.switch14.eth[2].bitrate = 1600Mbps
*.switch14.eth[3].bitrate = 1200Mbps
*.switch14.eth[4].bitrate = 2200Mbps
*.switch14.eth[5].bitrate = 2400Mbps
*.switch14.eth[6].bitrate = 2300Mbps
*.switch14.eth[7].bitrate = 1200Mbps
*.switch14.eth[8].bitrate = 1800Mbps
*.switch14.eth[9].bitrate = 1300Mbps
*.switch14.eth[10].bitrate = 1600Mbps
*.host0.numApps = 17
*.host0.app[0].typename = "UdpSourceApp"
*.host0.app[0].io.destAddress = "host6"
*.host0.app[0].source.packetNameFormat = "%M-%m-%c"
*.host0.app[0].source.displayStringTextFormat = "sent %p pk (%l)"
*.host0.app[0].source.packetLength = 17B
*.host0.app[0].source.productionInterval = 1ms
*.host0.app[0].display-name = "type1_2"
*.host0.app[0].io.destPort = 1001
*.host0.app[1].typename = "UdpBasicApp"
*.host0.app[1].destAddresses = "host10"
*.host0.app[1].source.packetNameFormat = "%M-%m-%c"
*.host0.app[1].source.displayStringTextFormat = "sent %p pk (%l)"
*.host0.app[1].messageLength = 19B
*.host0.app[1].sendInterval = 1ms
*.host0.app[1].startTime = 7ms
*.host0.app[1].stopTime = 8ms
*.host0.app[1].display-name = "type2_4"
*.host0.app[1].destPort = 1002
*.host0.app[2].typename = "UdpBasicApp"
*.host0.app[2].destAddresses = "host10"
*.host0.app[2].source.packetNameFormat = "%M-%m-%c"
*.host0.app[2].source.displayStringTextFormat = "sent %p pk (%l)"
*.host0.app[2].messageLength = 19B
*.host0.app[2].sendInterval = 1ms
*.host0.app[2].startTime = 14ms
*.host0.app[2].stopTime = 22ms
*.host0.app[2].display-name = "type2_4"
*.host0.app[2].destPort = 1002
*.host0.app[3].typename = "UdpBasicApp"
*.host0.app[3].destAddresses = "host10"
*.host0.app[3].source.packetNameFormat = "%M-%m-%c"
*.host0.app[3].source.displayStringTextFormat = "sent %p pk (%l)"
*.host0.app[3].messageLength = 19B
*.host0.app[3].sendInterval = 1ms
*.host0.app[3].startTime = 24ms
*.host0.app[3].stopTime = 25ms
*.host0.app[3].display-name = "type2_4"
*.host0.app[3].destPort = 1002
*.host0.app[4].typename = "UdpBasicApp"
*.host0.app[4].destAddresses = "host10"
*.host0.app[4].source.packetNameFormat = "%M-%m-%c"
*.host0.app[4].source.displayStringTextFormat = "sent %p pk (%l)"
*.host0.app[4].messageLength = 19B
*.host0.app[4].sendInterval = 1ms
*.host0.app[4].startTime = 32ms
*.host0.app[4].stopTime = 35ms
*.host0.app[4].display-name = "type2_4"
*.host0.app[4].destPort = 1002
*.host0.app[5].typename = "UdpBasicApp"
*.host0.app[5].destAddresses = "host10"
*.host0.app[5].source.packetNameFormat = "%M-%m-%c"
*.host0.app[5].source.displayStringTextFormat = "sent %p pk (%l)"
*.host0.app[5].messageLength = 19B
*.host0.app[5].sendInterval = 1ms
*.host0.app[5].startTime = 36ms
*.host0.app[5].stopTime = 40ms
*.host0.app[5].display-name = "type2_4"
*.host0.app[5].destPort = 1002
*.host0.app[6].typename = "UdpBasicApp"
*.host0.app[6].destAddresses = "host10"
*.host0.app[6].source.packetNameFormat = "%M-%m-%c"
*.host0.app[6].source.displayStringTextFormat = "sent %p pk (%l)"
*.host0.app[6].messageLength = 19B
*.host0.app[6].sendInterval = 1ms
*.host0.app[6].startTime = 42ms
*.host0.app[6].stopTime = 45ms
*.host0.app[6].display-name = "type2_4"
*.host0.app[6].destPort = 1002
*.host0.app[7].typename = "UdpBasicApp"
*.host0.app[7].destAddresses = "host10"
*.host0.app[7].source.packetNameFormat = "%M-%m-%c"
*.host0.app[7].source.displayStringTextFormat = "sent %p pk (%l)"
*.host0.app[7].messageLength = 19B
*.host0.app[7].sendInterval = 1ms
*.host0.app[7].startTime = 54ms
*.host0.app[7].stopTime = 63ms
*.host0.app[7].display-name = "type2_4"
*.host0.app[7].destPort = 1002
*.host0.app[8].typename = "UdpBasicApp"
*.host0.app[8].destAddresses = "host10"
*.host0.app[8].source.packetNameFormat = "%M-%m-%c"
*.host0.app[8].source.displayStringTextFormat = "sent %p pk (%l)"
*.host0.app[8].messageLength = 19B
*.host0.app[8].sendInterval = 1ms
*.host0.app[8].startTime = 68ms
*.host0.app[8].stopTime = 81ms
*.host0.app[8].display-name = "type2_4"
*.host0.app[8].destPort = 1002
*.host0.app[9].typename = "UdpBasicApp"
*.host0.app[9].destAddresses = "host10"
*.host0.app[9].source.packetNameFormat = "%M-%m-%c"
*.host0.app[9].source.displayStringTextFormat = "sent %p pk (%l)"
*.host0.app[9].messageLength = 19B
*.host0.app[9].sendInterval = 1ms
*.host0.app[9].startTime = 82ms
*.host0.app[9].stopTime = 86ms
*.host0.app[9].display-name = "type2_4"
*.host0.app[9].destPort = 1002
*.host0.app[10].typename = "UdpBasicApp"
*.host0.app[10].destAddresses = "host10"
*.host0.app[10].source.packetNameFormat = "%M-%m-%c"
*.host0.app[10].source.displayStringTextFormat = "sent %p pk (%l)"
*.host0.app[10].messageLength = 19B
*.host0.app[10].sendInterval = 1ms
*.host0.app[10].startTime = 92ms
*.host0.app[10].stopTime = 93ms
*.host0.app[10].display-name = "type2_4"
*.host0.app[10].destPort = 1002
*.host0.app[11].typename = "UdpBasicApp"
*.host0.app[11].destAddresses = "host10"
*.host0.app[11].source.packetNameFormat = "%M-%m-%c"
*.host0.app[11].source.displayStringTextFormat = "sent %p pk (%l)"
*.host0.app[11].messageLength = 19B
*.host0.app[11].sendInterval = 1ms
*.host0.app[11].startTime = 95ms
*.host0.app[11].stopTime = 96ms
*.host0.app[11].display-name = "type2_4"
*.host0.app[11].destPort = 1002
*.host0.app[12].typename = "UdpSinkApp"
*.host0.app[12].io.localPort = 1000
*.host0.app[13].typename = "UdpBasicApp"
*.host0.app[13].destAddresses = "host14"
*.host0.app[13].source.packetNameFormat = "%M-%m-%c"
*.host0.app[13].source.displayStringTextFormat = "sent %p pk (%l)"
*.host0.app[13].messageLength = 20B
*.host0.app[13].sendInterval = 1ms
*.host0.app[13].startTime = 3ms
*.host0.app[13].stopTime = 7ms
*.host0.app[13].display-name = "type2_14"
*.host0.app[13].destPort = 1000
*.host0.app[14].typename = "UdpBasicApp"
*.host0.app[14].destAddresses = "host14"
*.host0.app[14].source.packetNameFormat = "%M-%m-%c"
*.host0.app[14].source.displayStringTextFormat = "sent %p pk (%l)"
*.host0.app[14].messageLength = 20B
*.host0.app[14].sendInterval = 1ms
*.host0.app[14].startTime = 29ms
*.host0.app[14].stopTime = 30ms
*.host0.app[14].display-name = "type2_14"
*.host0.app[14].destPort = 1000
*.host0.app[15].typename = "UdpBasicApp"
*.host0.app[15].destAddresses = "host14"
*.host0.app[15].source.packetNameFormat = "%M-%m-%c"
*.host0.app[15].source.displayStringTextFormat = "sent %p pk (%l)"
*.host0.app[15].messageLength = 20B
*.host0.app[15].sendInterval = 1ms
*.host0.app[15].startTime = 39ms
*.host0.app[15].stopTime = 40ms
*.host0.app[15].display-name = "type2_14"
*.host0.app[15].destPort = 1000
*.host0.app[16].typename = "UdpBasicApp"
*.host0.app[16].destAddresses = "host14"
*.host0.app[16].source.packetNameFormat = "%M-%m-%c"
*.host0.app[16].source.displayStringTextFormat = "sent %p pk (%l)"
*.host0.app[16].messageLength = 20B
*.host0.app[16].sendInterval = 1ms
*.host0.app[16].startTime = 57ms
*.host0.app[16].stopTime = 100ms
*.host0.app[16].display-name = "type2_14"
*.host0.app[16].destPort = 1000
*.host1.numApps = 12
*.host1.app[0].typename = "UdpSourceApp"
*.host1.app[0].io.destAddress = "host7"
*.host1.app[0].source.packetNameFormat = "%M-%m-%c"
*.host1.app[0].source.displayStringTextFormat = "sent %p pk (%l)"
*.host1.app[0].source.packetLength = 15B
*.host1.app[0].source.productionInterval = 1ms
*.host1.app[0].display-name = "type1_3"
*.host1.app[0].io.destPort = 1000
*.host1.app[1].typename = "UdpSinkApp"
*.host1.app[1].io.localPort = 1000
*.host1.app[2].typename = "UdpBasicApp"
*.host1.app[2].destAddresses = "host10"
*.host1.app[2].source.packetNameFormat = "%M-%m-%c"
*.host1.app[2].source.displayStringTextFormat = "sent %p pk (%l)"
*.host1.app[2].messageLength = 19B
*.host1.app[2].sendInterval = 1ms
*.host1.app[2].startTime = 0ms
*.host1.app[2].stopTime = 2ms
*.host1.app[2].display-name = "type2_11"
*.host1.app[2].destPort = 1004
*.host1.app[3].typename = "UdpBasicApp"
*.host1.app[3].destAddresses = "host10"
*.host1.app[3].source.packetNameFormat = "%M-%m-%c"
*.host1.app[3].source.displayStringTextFormat = "sent %p pk (%l)"
*.host1.app[3].messageLength = 19B
*.host1.app[3].sendInterval = 1ms
*.host1.app[3].startTime = 9ms
*.host1.app[3].stopTime = 23ms
*.host1.app[3].display-name = "type2_11"
*.host1.app[3].destPort = 1004
*.host1.app[4].typename = "UdpBasicApp"
*.host1.app[4].destAddresses = "host10"
*.host1.app[4].source.packetNameFormat = "%M-%m-%c"
*.host1.app[4].source.displayStringTextFormat = "sent %p pk (%l)"
*.host1.app[4].messageLength = 19B
*.host1.app[4].sendInterval = 1ms
*.host1.app[4].startTime = 24ms
*.host1.app[4].stopTime = 25ms
*.host1.app[4].display-name = "type2_11"
*.host1.app[4].destPort = 1004
*.host1.app[5].typename = "UdpBasicApp"
*.host1.app[5].destAddresses = "host10"
*.host1.app[5].source.packetNameFormat = "%M-%m-%c"
*.host1.app[5].source.displayStringTextFormat = "sent %p pk (%l)"
*.host1.app[5].messageLength = 19B
*.host1.app[5].sendInterval = 1ms
*.host1.app[5].startTime = 28ms
*.host1.app[5].stopTime = 38ms
*.host1.app[5].display-name = "type2_11"
*.host1.app[5].destPort = 1004
*.host1.app[6].typename = "UdpBasicApp"
*.host1.app[6].destAddresses = "host10"
*.host1.app[6].source.packetNameFormat = "%M-%m-%c"
*.host1.app[6].source.displayStringTextFormat = "sent %p pk (%l)"
*.host1.app[6].messageLength = 19B
*.host1.app[6].sendInterval = 1ms
*.host1.app[6].startTime = 41ms
*.host1.app[6].stopTime = 44ms
*.host1.app[6].display-name = "type2_11"
*.host1.app[6].destPort = 1004
*.host1.app[7].typename = "UdpBasicApp"
*.host1.app[7].destAddresses = "host10"
*.host1.app[7].source.packetNameFormat = "%M-%m-%c"
*.host1.app[7].source.displayStringTextFormat = "sent %p pk (%l)"
*.host1.app[7].messageLength = 19B
*.host1.app[7].sendInterval = 1ms
*.host1.app[7].startTime = 51ms
*.host1.app[7].stopTime = 55ms
*.host1.app[7].display-name = "type2_11"
*.host1.app[7].destPort = 1004
*.host1.app[8].typename = "UdpBasicApp"
*.host1.app[8].destAddresses = "host10"
*.host1.app[8].source.packetNameFormat = "%M-%m-%c"
*.host1.app[8].source.displayStringTextFormat = "sent %p pk (%l)"
*.host1.app[8].messageLength = 19B
*.host1.app[8].sendInterval = 1ms
*.host1.app[8].startTime = 59ms
*.host1.app[8].stopTime = 62ms
*.host1.app[8].display-name = "type2_11"
*.host1.app[8].destPort = 1004
*.host1.app[9].typename = "UdpBasicApp"
*.host1.app[9].destAddresses = "host10"
*.host1.app[9].source.packetNameFormat = "%M-%m-%c"
*.host1.app[9].source.displayStringTextFormat = "sent %p pk (%l)"
*.host1.app[9].messageLength = 19B
*.host1.app[9].sendInterval = 1ms
*.host1.app[9].startTime = 69ms
*.host1.app[9].stopTime = 72ms
*.host1.app[9].display-name = "type2_11"
*.host1.app[9].destPort = 1004
*.host1.app[10].typename = "UdpBasicApp"
*.host1.app[10].destAddresses = "host10"
*.host1.app[10].source.packetNameFormat = "%M-%m-%c"
*.host1.app[10].source.displayStringTextFormat = "sent %p pk (%l)"
*.host1.app[10].messageLength = 19B
*.host1.app[10].sendInterval = 1ms
*.host1.app[10].startTime = 75ms
*.host1.app[10].stopTime = 77ms
*.host1.app[10].display-name = "type2_11"
*.host1.app[10].destPort = 1004
*.host1.app[11].typename = "UdpBasicApp"
*.host1.app[11].destAddresses = "host10"
*.host1.app[11].source.packetNameFormat = "%M-%m-%c"
*.host1.app[11].source.displayStringTextFormat = "sent %p pk (%l)"
*.host1.app[11].messageLength = 19B
*.host1.app[11].sendInterval = 1ms
*.host1.app[11].startTime = 95ms
*.host1.app[11].stopTime = 100ms
*.host1.app[11].display-name = "type2_11"
*.host1.app[11].destPort = 1004
*.host2.numApps = 11
*.host2.app[0].typename = "UdpSourceApp"
*.host2.app[0].io.destAddress = "host6"
*.host2.app[0].source.packetNameFormat = "%M-%m-%c"
*.host2.app[0].source.displayStringTextFormat = "sent %p pk (%l)"
*.host2.app[0].source.packetLength = 13B
*.host2.app[0].source.productionInterval = 1ms
*.host2.app[0].display-name = "type1_0"
*.host2.app[0].io.destPort = 1000
*.host2.app[1].typename = "UdpBasicApp"
*.host2.app[1].destAddresses = "host9"
*.host2.app[1].source.packetNameFormat = "%M-%m-%c"
*.host2.app[1].source.displayStringTextFormat = "sent %p pk (%l)"
*.host2.app[1].messageLength = 20B
*.host2.app[1].sendInterval = 1ms
*.host2.app[1].startTime = 21ms
*.host2.app[1].stopTime = 29ms
*.host2.app[1].display-name = "type2_2"
*.host2.app[1].destPort = 1000
*.host2.app[2].typename = "UdpBasicApp"
*.host2.app[2].destAddresses = "host9"
*.host2.app[2].source.packetNameFormat = "%M-%m-%c"
*.host2.app[2].source.displayStringTextFormat = "sent %p pk (%l)"
*.host2.app[2].messageLength = 20B
*.host2.app[2].sendInterval = 1ms
*.host2.app[2].startTime = 35ms
*.host2.app[2].stopTime = 46ms
*.host2.app[2].display-name = "type2_2"
*.host2.app[2].destPort = 1000
*.host2.app[3].typename = "UdpBasicApp"
*.host2.app[3].destAddresses = "host9"
*.host2.app[3].source.packetNameFormat = "%M-%m-%c"
*.host2.app[3].source.displayStringTextFormat = "sent %p pk (%l)"
*.host2.app[3].messageLength = 20B
*.host2.app[3].sendInterval = 1ms
*.host2.app[3].startTime = 53ms
*.host2.app[3].stopTime = 64ms
*.host2.app[3].display-name = "type2_2"
*.host2.app[3].destPort = 1000
*.host2.app[4].typename = "UdpBasicApp"
*.host2.app[4].destAddresses = "host9"
*.host2.app[4].source.packetNameFormat = "%M-%m-%c"
*.host2.app[4].source.displayStringTextFormat = "sent %p pk (%l)"
*.host2.app[4].messageLength = 20B
*.host2.app[4].sendInterval = 1ms
*.host2.app[4].startTime = 66ms
*.host2.app[4].stopTime = 75ms
*.host2.app[4].display-name = "type2_2"
*.host2.app[4].destPort = 1000
*.host2.app[5].typename = "UdpBasicApp"
*.host2.app[5].destAddresses = "host9"
*.host2.app[5].source.packetNameFormat = "%M-%m-%c"
*.host2.app[5].source.displayStringTextFormat = "sent %p pk (%l)"
*.host2.app[5].messageLength = 20B
*.host2.app[5].sendInterval = 1ms
*.host2.app[5].startTime = 80ms
*.host2.app[5].stopTime = 86ms
*.host2.app[5].display-name = "type2_2"
*.host2.app[5].destPort = 1000
*.host2.app[6].typename = "UdpBasicApp"
*.host2.app[6].destAddresses = "host10"
*.host2.app[6].source.packetNameFormat = "%M-%m-%c"
*.host2.app[6].source.displayStringTextFormat = "sent %p pk (%l)"
*.host2.app[6].messageLength = 20B
*.host2.app[6].sendInterval = 1ms
*.host2.app[6].startTime = 1ms
*.host2.app[6].stopTime = 2ms
*.host2.app[6].display-name = "type2_3"
*.host2.app[6].destPort = 1001
*.host2.app[7].typename = "UdpBasicApp"
*.host2.app[7].destAddresses = "host10"
*.host2.app[7].source.packetNameFormat = "%M-%m-%c"
*.host2.app[7].source.displayStringTextFormat = "sent %p pk (%l)"
*.host2.app[7].messageLength = 20B
*.host2.app[7].sendInterval = 1ms
*.host2.app[7].startTime = 45ms
*.host2.app[7].stopTime = 47ms
*.host2.app[7].display-name = "type2_3"
*.host2.app[7].destPort = 1001
*.host2.app[8].typename = "UdpBasicApp"
*.host2.app[8].destAddresses = "host10"
*.host2.app[8].source.packetNameFormat = "%M-%m-%c"
*.host2.app[8].source.displayStringTextFormat = "sent %p pk (%l)"
*.host2.app[8].messageLength = 20B
*.host2.app[8].sendInterval = 1ms
*.host2.app[8].startTime = 74ms
*.host2.app[8].stopTime = 87ms
*.host2.app[8].display-name = "type2_3"
*.host2.app[8].destPort = 1001
*.host2.app[9].typename = "UdpBasicApp"
*.host2.app[9].destAddresses = "host10"
*.host2.app[9].source.packetNameFormat = "%M-%m-%c"
*.host2.app[9].source.displayStringTextFormat = "sent %p pk (%l)"
*.host2.app[9].messageLength = 20B
*.host2.app[9].sendInterval = 1ms
*.host2.app[9].startTime = 90ms
*.host2.app[9].stopTime = 92ms
*.host2.app[9].display-name = "type2_3"
*.host2.app[9].destPort = 1001
*.host2.app[10].typename = "UdpBasicApp"
*.host2.app[10].destAddresses = "host10"
*.host2.app[10].source.packetNameFormat = "%M-%m-%c"
*.host2.app[10].source.displayStringTextFormat = "sent %p pk (%l)"
*.host2.app[10].messageLength = 20B
*.host2.app[10].sendInterval = 1ms
*.host2.app[10].startTime = 95ms
*.host2.app[10].stopTime = 100ms
*.host2.app[10].display-name = "type2_3"
*.host2.app[10].destPort = 1001
*.host3.numApps = 8
*.host3.app[0].typename = "UdpSinkApp"
*.host3.app[0].io.localPort = 1000
*.host3.app[1].typename = "UdpBasicApp"
*.host3.app[1].destAddresses = "host11"
*.host3.app[1].source.packetNameFormat = "%M-%m-%c"
*.host3.app[1].source.displayStringTextFormat = "sent %p pk (%l)"
*.host3.app[1].messageLength = 17B
*.host3.app[1].sendInterval = 1ms
*.host3.app[1].startTime = 9ms
*.host3.app[1].stopTime = 15ms
*.host3.app[1].display-name = "type2_10"
*.host3.app[1].destPort = 1000
*.host3.app[2].typename = "UdpBasicApp"
*.host3.app[2].destAddresses = "host11"
*.host3.app[2].source.packetNameFormat = "%M-%m-%c"
*.host3.app[2].source.displayStringTextFormat = "sent %p pk (%l)"
*.host3.app[2].messageLength = 17B
*.host3.app[2].sendInterval = 1ms
*.host3.app[2].startTime = 16ms
*.host3.app[2].stopTime = 22ms
*.host3.app[2].display-name = "type2_10"
*.host3.app[2].destPort = 1000
*.host3.app[3].typename = "UdpBasicApp"
*.host3.app[3].destAddresses = "host11"
*.host3.app[3].source.packetNameFormat = "%M-%m-%c"
*.host3.app[3].source.displayStringTextFormat = "sent %p pk (%l)"
*.host3.app[3].messageLength = 17B
*.host3.app[3].sendInterval = 1ms
*.host3.app[3].startTime = 83ms
*.host3.app[3].stopTime = 88ms
*.host3.app[3].display-name = "type2_10"
*.host3.app[3].destPort = 1000
*.host3.app[4].typename = "UdpBasicApp"
*.host3.app[4].destAddresses = "host11"
*.host3.app[4].source.packetNameFormat = "%M-%m-%c"
*.host3.app[4].source.displayStringTextFormat = "sent %p pk (%l)"
*.host3.app[4].messageLength = 17B
*.host3.app[4].sendInterval = 1ms
*.host3.app[4].startTime = 95ms
*.host3.app[4].stopTime = 100ms
*.host3.app[4].display-name = "type2_10"
*.host3.app[4].destPort = 1000
*.host3.app[5].typename = "UdpSinkApp"
*.host3.app[5].io.localPort = 1001
*.host3.app[6].typename = "UdpSinkApp"
*.host3.app[6].io.localPort = 1002
*.host3.app[7].typename = "UdpSinkApp"
*.host3.app[7].io.localPort = 1003
*.host4.numApps = 9
*.host4.app[0].typename = "UdpBasicApp"
*.host4.app[0].destAddresses = "host14"
*.host4.app[0].source.packetNameFormat = "%M-%m-%c"
*.host4.app[0].source.displayStringTextFormat = "sent %p pk (%l)"
*.host4.app[0].messageLength = 18B
*.host4.app[0].sendInterval = 1ms
*.host4.app[0].startTime = 0ms
*.host4.app[0].stopTime = 5ms
*.host4.app[0].display-name = "type2_18"
*.host4.app[0].destPort = 1001
*.host4.app[1].typename = "UdpBasicApp"
*.host4.app[1].destAddresses = "host14"
*.host4.app[1].source.packetNameFormat = "%M-%m-%c"
*.host4.app[1].source.displayStringTextFormat = "sent %p pk (%l)"
*.host4.app[1].messageLength = 18B
*.host4.app[1].sendInterval = 1ms
*.host4.app[1].startTime = 16ms
*.host4.app[1].stopTime = 36ms
*.host4.app[1].display-name = "type2_18"
*.host4.app[1].destPort = 1001
*.host4.app[2].typename = "UdpBasicApp"
*.host4.app[2].destAddresses = "host14"
*.host4.app[2].source.packetNameFormat = "%M-%m-%c"
*.host4.app[2].source.displayStringTextFormat = "sent %p pk (%l)"
*.host4.app[2].messageLength = 18B
*.host4.app[2].sendInterval = 1ms
*.host4.app[2].startTime = 37ms
*.host4.app[2].stopTime = 38ms
*.host4.app[2].display-name = "type2_18"
*.host4.app[2].destPort = 1001
*.host4.app[3].typename = "UdpBasicApp"
*.host4.app[3].destAddresses = "host14"
*.host4.app[3].source.packetNameFormat = "%M-%m-%c"
*.host4.app[3].source.displayStringTextFormat = "sent %p pk (%l)"
*.host4.app[3].messageLength = 18B
*.host4.app[3].sendInterval = 1ms
*.host4.app[3].startTime = 43ms
*.host4.app[3].stopTime = 44ms
*.host4.app[3].display-name = "type2_18"
*.host4.app[3].destPort = 1001
*.host4.app[4].typename = "UdpBasicApp"
*.host4.app[4].destAddresses = "host14"
*.host4.app[4].source.packetNameFormat = "%M-%m-%c"
*.host4.app[4].source.displayStringTextFormat = "sent %p pk (%l)"
*.host4.app[4].messageLength = 18B
*.host4.app[4].sendInterval = 1ms
*.host4.app[4].startTime = 55ms
*.host4.app[4].stopTime = 59ms
*.host4.app[4].display-name = "type2_18"
*.host4.app[4].destPort = 1001
*.host4.app[5].typename = "UdpBasicApp"
*.host4.app[5].destAddresses = "host14"
*.host4.app[5].source.packetNameFormat = "%M-%m-%c"
*.host4.app[5].source.displayStringTextFormat = "sent %p pk (%l)"
*.host4.app[5].messageLength = 18B
*.host4.app[5].sendInterval = 1ms
*.host4.app[5].startTime = 74ms
*.host4.app[5].stopTime = 81ms
*.host4.app[5].display-name = "type2_18"
*.host4.app[5].destPort = 1001
*.host4.app[6].typename = "UdpBasicApp"
*.host4.app[6].destAddresses = "host14"
*.host4.app[6].source.packetNameFormat = "%M-%m-%c"
*.host4.app[6].source.displayStringTextFormat = "sent %p pk (%l)"
*.host4.app[6].messageLength = 18B
*.host4.app[6].sendInterval = 1ms
*.host4.app[6].startTime = 86ms
*.host4.app[6].stopTime = 89ms
*.host4.app[6].display-name = "type2_18"
*.host4.app[6].destPort = 1001