[General]
network = TSN_multipath
sim-time-limit = 10ms
*.macForwardingTableConfigurator.typename = ""
*.*.hasStreamRedundancy = true
*.*.bridging.streamRelay.typename = "StreamRelayLayer"
*.*.bridging.streamCoder.typename = "StreamCoderLayer"
*.streamRedundancyConfigurator.typename = "StreamRedundancyConfigurator"
*.host0.eth[0].bitrate = 1000Mbps
*.switch0.eth[0].bitrate = 1000Mbps
*.switch0.eth[1].bitrate = 2100Mbps
*.switch0.eth[2].bitrate = 1600Mbps
*.switch0.eth[3].bitrate = 2200Mbps
*.switch0.eth[4].bitrate = 1900Mbps
*.switch0.eth[5].bitrate = 2000Mbps
*.switch0.eth[6].bitrate = 2000Mbps
*.host1.eth[0].bitrate = 1000Mbps
*.switch1.eth[0].bitrate = 1000Mbps
*.switch1.eth[1].bitrate = 1900Mbps
*.switch1.eth[2].bitrate = 1400Mbps
*.switch1.eth[3].bitrate = 1300Mbps
*.switch1.eth[4].bitrate = 1800Mbps
*.switch1.eth[5].bitrate = 2000Mbps
*.host2.eth[0].bitrate = 1000Mbps
*.switch2.eth[0].bitrate = 1000Mbps
*.switch2.eth[1].bitrate = 2100Mbps
*.switch2.eth[2].bitrate = 1300Mbps
*.switch2.eth[3].bitrate = 2400Mbps
*.switch2.eth[4].bitrate = 1900Mbps
*.switch2.eth[5].bitrate = 2100Mbps
*.switch2.eth[6].bitrate = 1500Mbps
*.switch2.eth[7].bitrate = 1900Mbps
*.switch2.eth[8].bitrate = 1400Mbps
*.switch2.eth[9].bitrate = 2200Mbps
*.switch2.eth[10].bitrate = 1200Mbps
*.host3.eth[0].bitrate = 1000Mbps
*.switch3.eth[0].bitrate = 1000Mbps
*.switch3.eth[1].bitrate = 2200Mbps
*.switch3.eth[2].bitrate = 2400Mbps
*.switch3.eth[3].bitrate = 1900Mbps
*.switch3.eth[4].bitrate = 2000Mbps
*.switch3.eth[5].bitrate = 2400Mbps
*.host4.eth[0].bitrate = 1000Mbps
*.switch4.eth[0].bitrate = 1000Mbps
*.switch4.eth[1].bitrate = 2400Mbps
*.switch4.eth[2].bitrate = 1900Mbps
*.switch4.eth[3].bitrate = 1800Mbps
*.switch4.eth[4].bitrate = 1900Mbps
*.switch4.eth[5].bitrate = 1900Mbps
*.switch4.eth[6].bitrate = 1400Mbps
*.switch4.eth[7].bitrate = 1300Mbps
*.switch4.eth[8].bitrate = 2400Mbps
*.switch4.eth[9].bitrate = 1500Mbps
*.switch4.eth[10].bitrate = 1400Mbps
*.switch4.eth[11].bitrate = 2000Mbps
*.switch4.eth[12].bitrate = 1900Mbps
*.host5.eth[0].bitrate = 1000Mbps
*.switch5.eth[0].bitrate = 1000Mbps
*.switch5.eth[1].bitrate = 1600Mbps
*.switch5.eth[2].bitrate = 1900Mbps
*.switch5.eth[3].bitrate = 1900Mbps
*.switch5.eth[4].bitrate = 2000Mbps
*.switch5.eth[5].bitrate = 2000Mbps
*.switch5.eth[6].bitrate = 1400Mbps
*.switch5.eth[7].bitrate = 1400Mbps
*.switch5.eth[8].bitrate = 2000Mbps
*.switch5.eth[9].bitrate = 2000Mbps
*.host6.eth[0].bitrate = 1000Mbps
*.switch6.eth[0].bitrate = 1000Mbps
*.switch6.eth[1].bitrate = 1400Mbps
*.switch6.eth[2].bitrate = 2000Mbps
*.switch6.eth[3].bitrate = 1900Mbps
*.switch6.eth[4].bitrate = 2000Mbps
*.switch6.eth[5].bitrate = 1700Mbps
*.switch6.eth[6].bitrate = 1200Mbps
*.switch6.eth[7].bitrate = 1900Mbps
*.host7.eth[0].bitrate = 1000Mbps
*.switch7.eth[0].bitrate = 1000Mbps
*.switch7.eth[1].bitrate = 1900Mbps
*.switch7.eth[2].bitrate = 2100Mbps
*.switch7.eth[3].bitrate = 1300Mbps
*.switch7.eth[4].bitrate = 2200Mbps
*.switch7.eth[5].bitrate = 2000Mbps
*.switch7.eth[6].bitrate = 1900Mbps
*.switch7.eth[7].bitrate = 1200Mbps
*.switch7.eth[8].bitrate = 1400Mbps
*.host8.eth[0].bitrate = 1000Mbps
*.switch8.eth[0].bitrate = 1000Mbps
*.switch8.eth[1].bitrate = 1400Mbps
*.switch8.eth[2].bitrate = 1500Mbps
*.switch8.eth[3].bitrate = 2400Mbps
*.switch8.eth[4].bitrate = 2400Mbps
*.switch8.eth[5].bitrate = 1700Mbps
*.switch8.eth[6].bitrate = 2000Mbps
*.switch8.eth[7].bitrate = 1400Mbps
*.switch8.eth[8].bitrate = 2000Mbps
*.switch8.eth[9].bitrate = 2400Mbps
*.host9.eth[0].bitrate = 1000Mbps
*.switch9.eth[0].bitrate = 1000Mbps
*.switch9.eth[1].bitrate = 1500Mbps
*.switch9.eth[2].bitrate = 2000Mbps
*.switch9.eth[3].bitrate = 2000Mbps
*.switch9.eth[4].bitrate = 1200Mbps
*.switch9.eth[5].bitrate = 2400Mbps
*.switch9.eth[6].bitrate = 1900Mbps
*.switch9.eth[7].bitrate = 2400Mbps
*.host0.numApps = 7
*.host0.app[0].typename = "UdpBasicApp"
*.host0.app[0].destAddresses = "host1"
*.host0.app[0].source.packetNameFormat = "%M-%m-%c"
*.host0.app[0].source.displayStringTextFormat = "sent %p pk (%l)"
*.host0.app[0].messageLength = 19B
*.host0.app[0].sendInterval = 1ms
*.host0.app[0].startTime = 1500us
*.host0.app[0].stopTime = 2200us
*.host0.app[0].display-name = "type2_1"
*.host0.app[0].destPort = 1001
*.host0.app[1].typename = "UdpBasicApp"
*.host0.app[1].destAddresses = "host1"
*.host0.app[1].source.packetNameFormat = "%M-%m-%c"
*.host0.app[1].source.displayStringTextFormat = "sent %p pk (%l)"
*.host0.app[1].messageLength = 19B
*.host0.app[1].sendInterval = 1ms
*.host0.app[1].startTime = 2600us
*.host0.app[1].stopTime = 2700us
*.host0.app[1].display-name = "type2_1"
*.host0.app[1].destPort = 1001
*.host0.app[2].typename = "UdpBasicApp"
*.host0.app[2].destAddresses = "host1"
*.host0.app[2].source.packetNameFormat = "%M-%m-%c"
*.host0.app[2].source.displayStringTextFormat = "sent %p pk (%l)"
*.host0.app[2].messageLength = 19B
*.host0.app[2].sendInterval = 1ms
*.host0.app[2].startTime = 3200us
*.host0.app[2].stopTime = 5000us
*.host0.app[2].display-name = "type2_1"
*.host0.app[2].destPort = 1001
*.host0.app[3].typename = "UdpBasicApp"
*.host0.app[3].destAddresses = "host1"
*.host0.app[3].source.packetNameFormat = "%M-%m-%c"
*.host0.app[3].source.displayStringTextFormat = "sent %p pk (%l)"
*.host0.app[3].messageLength = 19B
*.host0.app[3].sendInterval = 1ms
*.host0.app[3].startTime = 5700us
*.host0.app[3].stopTime = 5900us
*.host0.app[3].display-name = "type2_1"
*.host0.app[3].destPort = 1001
*.host0.app[4].typename = "UdpBasicApp"
*.host0.app[4].destAddresses = "host1"
*.host0.app[4].source.packetNameFormat = "%M-%m-%c"
*.host0.app[4].source.displayStringTextFormat = "sent %p pk (%l)"
*.host0.app[4].messageLength = 19B
*.host0.app[4].sendInterval = 1ms
*.host0.app[4].startTime = 6400us
*.host0.app[4].stopTime = 10000us
*.host0.app[4].display-name = "type2_1"
*.host0.app[4].destPort = 1001
*.host0.app[5].typename = "UdpSinkApp"
*.host0.app[5].io.localPort = 1000
*.host0.app[6].typename = "UdpSinkApp"
*.host0.app[6].io.localPort = 1001
*.host1.numApps = 28
*.host1.app[0].typename = "UdpSinkApp"
*.host1.app[0].io.localPort = 1000
*.host1.app[1].typename = "UdpSourceApp"
*.host1.app[1].io.destAddress = "host8"
*.host1.app[1].source.packetNameFormat = "%M-%m-%c"
*.host1.app[1].source.displayStringTextFormat = "sent %p pk (%l)"
*.host1.app[1].source.packetLength = 24B
*.host1.app[1].source.productionInterval = 1ms
*.host1.app[1].display-name = "type1_1"
*.host1.app[1].io.destPort = 1000
*.host1.app[2].typename = "UdpSinkApp"
*.host1.app[2].io.localPort = 1001
*.host1.app[3].typename = "UdpBasicApp"
*.host1.app[3].destAddresses = "host3"
*.host1.app[3].source.packetNameFormat = "%M-%m-%c"
*.host1.app[3].source.displayStringTextFormat = "sent %p pk (%l)"
*.host1.app[3].messageLength = 22B
*.host1.app[3].sendInterval = 1ms
*.host1.app[3].startTime = 400us
*.host1.app[3].stopTime = 1800us
*.host1.app[3].display-name = "type2_3"
*.host1.app[3].destPort = 1001
*.host1.app[4].typename = "UdpBasicApp"
*.host1.app[4].destAddresses = "host3"
*.host1.app[4].source.packetNameFormat = "%M-%m-%c"
*.host1.app[4].source.displayStringTextFormat = "sent %p pk (%l)"
*.host1.app[4].messageLength = 22B
*.host1.app[4].sendInterval = 1ms
*.host1.app[4].startTime = 2100us
*.host1.app[4].stopTime = 3200us
*.host1.app[4].display-name = "type2_3"
*.host1.app[4].destPort = 1001
*.host1.app[5].typename = "UdpBasicApp"
*.host1.app[5].destAddresses = "host3"
*.host1.app[5].source.packetNameFormat = "%M-%m-%c"
*.host1.app[5].source.displayStringTextFormat = "sent %p pk (%l)"
*.host1.app[5].messageLength = 22B
*.host1.app[5].sendInterval = 1ms
*.host1.app[5].startTime = 6000us
*.host1.app[5].stopTime = 6600us
*.host1.app[5].display-name = "type2_3"
*.host1.app[5].destPort = 1001
*.host1.app[6].typename = "UdpBasicApp"
*.host1.app[6].destAddresses = "host3"
*.host1.app[6].source.packetNameFormat = "%M-%m-%c"
*.host1.app[6].source.displayStringTextFormat = "sent %p pk (%l)"
*.host1.app[6].messageLength = 22B
*.host1.app[6].sendInterval = 1ms
*.host1.app[6].startTime = 6800us
*.host1.app[6].stopTime = 7200us
*.host1.app[6].display-name = "type2_3"
*.host1.app[6].destPort = 1001
*.host1.app[7].typename = "UdpBasicApp"
*.host1.app[7].destAddresses = "host3"
*.host1.app[7].source.packetNameFormat = "%M-%m-%c"
*.host1.app[7].source.displayStringTextFormat = "sent %p pk (%l)"
*.host1.app[7].messageLength = 22B
*.host1.app[7].sendInterval = 1ms
*.host1.app[7].startTime = 7400us
*.host1.app[7].stopTime = 10000us
*.host1.app[7].display-name = "type2_3"
*.host1.app[7].destPort = 1001
*.host1.app[8].typename = "UdpBasicApp"
*.host1.app[8].destAddresses = "host8"
*.host1.app[8].source.packetNameFormat = "%M-%m-%c"
*.host1.app[8].source.displayStringTextFormat = "sent %p pk (%l)"
*.host1.app[8].messageLength = 22B
*.host1.app[8].sendInterval = 1ms
*.host1.app[8].startTime = 400us
*.host1.app[8].stopTime = 600us
*.host1.app[8].display-name = "type2_4"
*.host1.app[8].destPort = 1001
*.host1.app[9].typename = "UdpBasicApp"
*.host1.app[9].destAddresses = "host8"
*.host1.app[9].source.packetNameFormat = "%M-%m-%c"
*.host1.app[9].source.displayStringTextFormat = "sent %p pk (%l)"
*.host1.app[9].messageLength = 22B
*.host1.app[9].sendInterval = 1ms
*.host1.app[9].startTime = 1800us
*.host1.app[9].stopTime = 2000us
*.host1.app[9].display-name = "type2_4"
*.host1.app[9].destPort = 1001
*.host1.app[10].typename = "UdpBasicApp"
*.host1.app[10].destAddresses = "host8"
*.host1.app[10].source.packetNameFormat = "%M-%m-%c"
*.host1.app[10].source.displayStringTextFormat = "sent %p pk (%l)"
*.host1.app[10].messageLength = 22B
*.host1.app[10].sendInterval = 1ms
*.host1.app[10].startTime = 2300us
*.host1.app[10].stopTime = 3100us
*.host1.app[10].display-name = "type2_4"
*.host1.app[10].destPort = 1001
*.host1.app[11].typename = "UdpBasicApp"
*.host1.app[11].destAddresses = "host8"
*.host1.app[11].source.packetNameFormat = "%M-%m-%c"
*.host1.app[11].source.displayStringTextFormat = "sent %p pk (%l)"
*.host1.app[11].messageLength = 22B
*.host1.app[11].sendInterval = 1ms
*.host1.app[11].startTime = 3800us
*.host1.app[11].stopTime = 4200us
*.host1.app[11].display-name = "type2_4"
*.host1.app[11].destPort = 1001
*.host1.app[12].typename = "UdpBasicApp"
*.host1.app[12].destAddresses = "host8"
*.host1.app[12].source.packetNameFormat = "%M-%m-%c"
*.host1.app[12].source.displayStringTextFormat = "sent %p pk (%l)"
*.host1.app[12].messageLength = 22B
*.host1.app[12].sendInterval = 1ms
*.host1.app[12].startTime = 5100us
*.host1.app[12].stopTime = 5900us
*.host1.app[12].display-name = "type2_4"
*.host1.app[12].destPort = 1001
*.host1.app[13].typename = "UdpBasicApp"
*.host1.app[13].destAddresses = "host8"
*.host1.app[13].source.packetNameFormat = "%M-%m-%c"
*.host1.app[13].source.displayStringTextFormat = "sent %p pk (%l)"
*.host1.app[13].messageLength = 22B
*.host1.app[13].sendInterval = 1ms
*.host1.app[13].startTime = 6500us
*.host1.app[13].stopTime = 6600us
*.host1.app[13].display-name = "type2_4"
*.host1.app[13].destPort = 1001
*.host1.app[14].typename = "UdpBasicApp"
*.host1.app[14].destAddresses = "host8"
*.host1.app[14].source.packetNameFormat = "%M-%m-%c"
*.host1.app[14].source.displayStringTextFormat = "sent %p pk (%l)"
*.host1.app[14].messageLength = 22B
*.host1.app[14].sendInterval = 1ms
*.host1.app[14].startTime = 6700us
*.host1.app[14].stopTime = 7100us
*.host1.app[14].display-name = "type2_4"
*.host1.app[14].destPort = 1001
*.host1.app[15].typename = "UdpBasicApp"
*.host1.app[15].destAddresses = "host8"
*.host1.app[15].source.packetNameFormat = "%M-%m-%c"
*.host1.app[15].source.displayStringTextFormat = "sent %p pk (%l)"
*.host1.app[15].messageLength = 22B
*.host1.app[15].sendInterval = 1ms
*.host1.app[15].startTime = 7200us
*.host1.app[15].stopTime = 7600us
*.host1.app[15].display-name = "type2_4"
*.host1.app[15].destPort = 1001
*.host1.app[16].typename = "UdpBasicApp"
*.host1.app[16].destAddresses = "host8"
*.host1.app[16].source.packetNameFormat = "%M-%m-%c"
*.host1.app[16].source.displayStringTextFormat = "sent %p pk (%l)"
*.host1.app[16].messageLength = 22B
*.host1.app[16].sendInterval = 1ms
*.host1.app[16].startTime = 7800us
*.host1.app[16].stopTime = 8000us
*.host1.app[16].display-name = "type2_4"
*.host1.app[16].destPort = 1001
*.host1.app[17].typename = "UdpBasicApp"
*.host1.app[17].destAddresses = "host8"
*.host1.app[17].source.packetNameFormat = "%M-%m-%c"
*.host1.app[17].source.displayStringTextFormat = "sent %p pk (%l)"
*.host1.app[17].messageLength = 22B
*.host1.app[17].sendInterval = 1ms
*.host1.app[17].startTime = 8300us
*.host1.app[17].stopTime = 8400us
*.host1.app[17].display-name = "type2_4"
*.host1.app[17].destPort = 1001
*.host1.app[18].typename = "UdpBasicApp"
*.host1.app[18].destAddresses = "host8"
*.host1.app[18].source.packetNameFormat = "%M-%m-%c"
*.host1.app[18].source.displayStringTextFormat = "sent %p pk (%l)"
*.host1.app[18].messageLength = 22B
*.host1.app[18].sendInterval = 1ms
*.host1.app[18].startTime = 9500us
*.host1.app[18].stopTime = 9900us
*.host1.app[18].display-name = "type2_4"
*.host1.app[18].destPort = 1001
*.host1.app[19].typename = "UdpSinkApp"
*.host1.app[19].io.localPort = 1002
*.host1.app[20].typename = "UdpBasicApp"
*.host1.app[20].destAddresses = "host3"
*.host1.app[20].source.packetNameFormat = "%M-%m-%c"
*.host1.app[20].source.displayStringTextFormat = "sent %p pk (%l)"
*.host1.app[20].messageLength = 18B
*.host1.app[20].sendInterval = 1ms
*.host1.app[20].startTime = 1900us
*.host1.app[20].stopTime = 3000us
*.host1.app[20].display-name = "type2_10"
*.host1.app[20].destPort = 1003
*.host1.app[21].typename = "UdpBasicApp"
*.host1.app[21].destAddresses = "host3"
*.host1.app[21].source.packetNameFormat = "%M-%m-%c"
*.host1.app[21].source.displayStringTextFormat = "sent %p pk (%l)"
*.host1.app[21].messageLength = 18B
*.host1.app[21].sendInterval = 1ms
*.host1.app[21].startTime = 3300us
*.host1.app[21].stopTime = 3500us
*.host1.app[21].display-name = "type2_10"
*.host1.app[21].destPort = 1003
*.host1.app[22].typename = "UdpBasicApp"
*.host1.app[22].destAddresses = "host3"
*.host1.app[22].source.packetNameFormat = "%M-%m-%c"
*.host1.app[22].source.displayStringTextFormat = "sent %p pk (%l)"
*.host1.app[22].messageLength = 18B
*.host1.app[22].sendInterval = 1ms
*.host1.app[22].startTime = 5700us
*.host1.app[22].stopTime = 5800us
*.host1.app[22].display-name = "type2_10"
*.host1.app[22].destPort = 1003
*.host1.app[23].typename = "UdpBasicApp"
*.host1.app[23].destAddresses = "host3"
*.host1.app[23].source.packetNameFormat = "%M-%m-%c"
*.host1.app[23].source.displayStringTextFormat = "sent %p pk (%l)"
*.host1.app[23].messageLength = 18B
*.host1.app[23].sendInterval = 1ms
*.host1.app[23].startTime = 6200us
*.host1.app[23].stopTime = 6600us
*.host1.app[23].display-name = "type2_10"
*.host1.app[23].destPort = 1003
*.host1.app[24].typename = "UdpBasicApp"
*.host1.app[24].destAddresses = "host3"
*.host1.app[24].source.packetNameFormat = "%M-%m-%c"
*.host1.app[24].source.displayStringTextFormat = "sent %p pk (%l)"
*.host1.app[24].messageLength = 18B
*.host1.app[24].sendInterval = 1ms
*.host1.app[24].startTime = 7400us
*.host1.app[24].stopTime = 7800us
*.host1.app[24].display-name = "type2_10"
*.host1.app[24].destPort = 1003
*.host1.app[25].typename = "UdpBasicApp"
*.host1.app[25].destAddresses = "host3"
*.host1.app[25].source.packetNameFormat = "%M-%m-%c"
*.host1.app[25].source.displayStringTextFormat = "sent %p pk (%l)"
*.host1.app[25].messageLength = 18B
*.host1.app[25].sendInterval = 1ms
*.host1.app[25].startTime = 8400us
*.host1.app[25].stopTime = 8800us
*.host1.app[25].display-name = "type2_10"
*.host1.app[25].destPort = 1003
*.host1.app[26].typename = "UdpBasicApp"
*.host1.app[26].destAddresses = "host3"
*.host1.app[26].source.packetNameFormat = "%M-%m-%c"
*.host1.app[26].source.displayStringTextFormat = "sent %p pk (%l)"
*.host1.app[26].messageLength = 18B
*.host1.app[26].sendInterval = 1ms
*.host1.app[26].startTime = 9500us
*.host1.app[26].stopTime = 10000us
*.host1.app[26].display-name = "type2_10"
*.host1.app[26].destPort = 1003
*.host1.app[27].typename = "UdpSinkApp"
*.host1.app[27].io.localPort = 1003
*.host2.numApps = 3
*.host2.app[0].typename = "UdpSourceApp"
*.host2.app[0].io.destAddress = "host9"
*.host2.app[0].source.packetNameFormat = "%M-%m-%c"
*.host2.app[0].source.displayStringTextFormat = "sent %p pk (%l)"
*.host2.app[0].source.packetLength = 18B
*.host2.app[0].source.productionInterval = 1ms
*.host2.app[0].display-name = "type1_2"
*.host2.app[0].io.destPort = 1000
*.host2.app[1].typename = "UdpSinkApp"
*.host2.app[1].io.localPort = 1000
*.host2.app[2].typename = "UdpSinkApp"
*.host2.app[2].io.localPort = 1001
*.host3.numApps = 13
*.host3.app[0].typename = "UdpSinkApp"
*.host3.app[0].io.localPort = 1000
*.host3.app[1].typename = "UdpSinkApp"
*.host3.app[1].io.localPort = 1001
*.host3.app[2].typename = "UdpSinkApp"
*.host3.app[2].io.localPort = 1002
*.host3.app[3].typename = "UdpSinkApp"
*.host3.app[3].io.localPort = 1003
*.host3.app[4].typename = "UdpSinkApp"
*.host3.app[4].io.localPort = 1004
*.host3.app[5].typename = "UdpBasicApp"
*.host3.app[5].destAddresses = "host1"
*.host3.app[5].source.packetNameFormat = "%M-%m-%c"
*.host3.app[5].source.displayStringTextFormat = "sent %p pk (%l)"
*.host3.app[5].messageLength = 12B
*.host3.app[5].sendInterval = 1ms
*.host3.app[5].startTime = 900us
*.host3.app[5].stopTime = 1000us
*.host3.app[5].display-name = "type2_13"
*.host3.app[5].destPort = 1003
*.host3.app[6].typename = "UdpBasicApp"
*.host3.app[6].destAddresses = "host1"
*.host3.app[6].source.packetNameFormat = "%M-%m-%c"
*.host3.app[6].source.displayStringTextFormat = "sent %p pk (%l)"
*.host3.app[6].messageLength = 12B
*.host3.app[6].sendInterval = 1ms
*.host3.app[6].startTime = 1600us
*.host3.app[6].stopTime = 1900us
*.host3.app[6].display-name = "type2_13"
*.host3.app[6].destPort = 1003
*.host3.app[7].typename = "UdpBasicApp"
*.host3.app[7].destAddresses = "host1"
*.host3.app[7].source.packetNameFormat = "%M-%m-%c"
*.host3.app[7].source.displayStringTextFormat = "sent %p pk (%l)"
*.host3.app[7].messageLength = 12B
*.host3.app[7].sendInterval = 1ms
*.host3.app[7].startTime = 4300us
*.host3.app[7].stopTime = 4800us
*.host3.app[7].display-name = "type2_13"
*.host3.app[7].destPort = 1003
*.host3.app[8].typename = "UdpBasicApp"
*.host3.app[8].destAddresses = "host1"
*.host3.app[8].source.packetNameFormat = "%M-%m-%c"
*.host3.app[8].source.displayStringTextFormat = "sent %p pk (%l)"
*.host3.app[8].messageLength = 12B
*.host3.app[8].sendInterval = 1ms
*.host3.app[8].startTime = 7200us
*.host3.app[8].stopTime = 9800us
*.host3.app[8].display-name = "type2_13"
*.host3.app[8].destPort = 1003
*.host3.app[9].typename = "UdpBasicApp"
*.host3.app[9].destAddresses = "host2"
*.host3.app[9].source.packetNameFormat = "%M-%m-%c"
*.host3.app[9].source.displayStringTextFormat = "sent %p pk (%l)"
*.host3.app[9].messageLength = 13B
*.host3.app[9].sendInterval = 1ms
*.host3.app[9].startTime = 400us
*.host3.app[9].stopTime = 800us
*.host3.app[9].display-name = "type2_14"
*.host3.app[9].destPort = 1001
*.host3.app[10].typename = "UdpBasicApp"
*.host3.app[10].destAddresses = "host2"
*.host3.app[10].source.packetNameFormat = "%M-%m-%c"
*.host3.app[10].source.displayStringTextFormat = "sent %p pk (%l)"
*.host3.app[10].messageLength = 13B
*.host3.app[10].sendInterval = 1ms
*.host3.app[10].startTime = 2000us
*.host3.app[10].stopTime = 2800us
*.host3.app[10].display-name = "type2_14"
*.host3.app[10].destPort = 1001
*.host3.app[11].typename = "UdpBasicApp"
*.host3.app[11].destAddresses = "host2"
*.host3.app[11].source.packetNameFormat = "%M-%m-%c"
*.host3.app[11].source.displayStringTextFormat = "sent %p pk (%l)"
*.host3.app[11].messageLength = 13B
*.host3.app[11].sendInterval = 1ms
*.host3.app[11].startTime = 5400us
*.host3.app[11].stopTime = 6200us
*.host3.app[11].display-name = "type2_14"
*.host3.app[11].destPort = 1001
*.host3.app[12].typename = "UdpBasicApp"
*.host3.app[12].destAddresses = "host2"
*.host3.app[12].source.packetNameFormat = "%M-%m-%c"
*.host3.app[12].source.displayStringTextFormat = "sent %p pk (%l)"
*.host3.app[12].messageLength = 13B
*.host3.app[12].sendInterval = 1ms
*.host3.app[12].startTime = 8000us
*.host3.app[12].stopTime = 9000us
*.host3.app[12].display-name = "type2_14"
*.host3.app[12].destPort = 1001
*.host4.numApps = 5
*.host4.app[0].typename = "UdpSourceApp"
*.host4.app[0].io.destAddress = "host6"
*.host4.app[0].source.packetNameFormat = "%M-%m-%c"
*.host4.app[0].source.displayStringTextFormat = "sent %p pk (%l)"
*.host4.app[0].source.packetLength = 13B
*.host4.app[0].source.productionInterval = 1ms
*.host4.app[0].display-name = "type1_3"
*.host4.app[0].io.destPort = 1000
*.host4.app[1].typename = "UdpSourceApp"
*.host4.app[1].io.destAddress = "host6"
*.host4.app[1].source.packetNameFormat = "%M-%m-%c"
*.host4.app[1].source.displayStringTextFormat = "sent %p pk (%l)"
*.host4.app[1].source.packetLength = 22B
*.host4.app[1].source.productionInterval = 1ms
*.host4.app[1].display-name = "type1_4"
*.host4.app[1].io.destPort = 1001
*.host4.app[2].typename = "UdpBasicApp"
*.host4.app[2].destAddresses = "host7"
*.host4.app[2].source.packetNameFormat = "%M-%m-%c"
*.host4.app[2].source.displayStringTextFormat = "sent %p pk (%l)"
*.host4.app[2].messageLength = 15B
*.host4.app[2].sendInterval = 1ms
*.host4.app[2].startTime = 2400us
*.host4.app[2].stopTime = 2900us
*.host4.app[2].display-name = "type2_6"
*.host4.app[2].destPort = 1000
*.host4.app[3].typename = "UdpBasicApp"
*.host4.app[3].destAddresses = "host7"
*.host4.app[3].source.packetNameFormat = "%M-%m-%c"
*.host4.app[3].source.displayStringTextFormat = "sent %p pk (%l)"
*.host4.app[3].messageLength = 15B
*.host4.app[3].sendInterval = 1ms
*.host4.app[3].startTime = 4500us
*.host4.app[3].stopTime = 6500us
*.host4.app[3].display-name = "type2_6"
*.host4.app[3].destPort = 1000
*.host4.app[4].typename = "UdpBasicApp"
*.host4.app[4].destAddresses = "host7"
*.host4.app[4].source.packetNameFormat = "%M-%m-%c"
*.host4.app[4].source.displayStringTextFormat = "sent %p pk (%l)"
*.host4.app[4].messageLength = 15B
*.host4.app[4].sendInterval = 1ms
*.host4.app[4].startTime = 6700us
*.host4.app[4].stopTime = 10000us
*.host4.app[4].display-name = "type2_6"
*.host4.app[4].destPort = 1000
*.host5.numApps = 13
*.host5.app[0].typename = "UdpBasicApp"
*.host5.app[0].destAddresses = "host2"
*.host5.app[0].source.packetNameFormat = "%M-%m-%c"
*.host5.app[0].source.displayStringTextFormat = "sent %p pk (%l)"
*.host5.app[0].messageLength = 21B
*.host5.app[0].sendInterval = 1ms
*.host5.app[0].startTime = 100us
*.host5.app[0].stopTime = 1700us
*.host5.app[0].display-name = "type2_0"
*.host5.app[0].destPort = 1000
*.host5.app[1].typename = "UdpBasicApp"
*.host5.app[1].destAddresses = "host2"
*.host5.app[1].source.packetNameFormat = "%M-%m-%c"
*.host5.app[1].source.displayStringTextFormat = "sent %p pk (%l)"
*.host5.app[1].messageLength = 21B
*.host5.app[1].sendInterval = 1ms
*.host5.app[1].startTime = 1800us
*.host5.app[1].stopTime = 2000us
*.host5.app[1].display-name = "type2_0"
*.host5.app[1].destPort = 1000
*.host5.app[2].typename = "UdpBasicApp"
*.host5.app[2].destAddresses = "host2"
*.host5.app[2].source.packetNameFormat = "%M-%m-%c"
*.host5.app[2].source.displayStringTextFormat = "sent %p pk (%l)"
*.host5.app[2].messageLength = 21B
*.host5.app[2].sendInterval = 1ms
*.host5.app[2].startTime = 3400us
*.host5.app[2].stopTime = 3500us
*.host5.app[2].display-name = "type2_0"
*.host5.app[2].destPort = 1000
*.host5.app[3].typename = "UdpBasicApp"
*.host5.app[3].destAddresses = "host2"
*.host5.app[3].source.packetNameFormat = "%M-%m-%c"
*.host5.app[3].source.displayStringTextFormat = "sent %p pk (%l)"
*.host5.app[3].messageLength = 21B
*.host5.app[3].sendInterval = 1ms
*.host5.app[3].startTime = 4300us
*.host5.app[3].stopTime = 5200us
*.host5.app[3].display-name = "type2_0"
*.host5.app[3].destPort = 1000
*.host5.app[4].typename = "UdpBasicApp"
*.host5.app[4].destAddresses = "host2"
*.host5.app[4].source.packetNameFormat = "%M-%m-%c"
*.host5.app[4].source.displayStringTextFormat = "sent %p pk (%l)"
*.host5.app[4].messageLength = 21B
*.host5.app[4].sendInterval = 1ms
*.host5.app[4].startTime = 5300us
*.host5.app[4].stopTime = 6800us
*.host5.app[4].display-name = "type2_0"
*.host5.app[4].destPort = 1000
*.host5.app[5].typename = "UdpBasicApp"
*.host5.app[5].destAddresses = "host2"
*.host5.app[5].source.packetNameFormat = "%M-%m-%c"
*.host5.app[5].source.displayStringTextFormat = "sent %p pk (%l)"
*.host5.app[5].messageLength = 21B
*.host5.app[5].sendInterval = 1ms
*.host5.app[5].startTime = 7000us
*.host5.app[5].stopTime = 8000us
*.host5.app[5].display-name = "type2_0"
*.host5.app[5].destPort = 1000
*.host5.app[6].typename = "UdpBasicApp"
*.host5.app[6].destAddresses = "host2"
*.host5.app[6].source.packetNameFormat = "%M-%m-%c"
*.host5.app[6].source.displayStringTextFormat = "sent %p pk (%l)"
*.host5.app[6].messageLength = 21B
*.host5.app[6].sendInterval = 1ms
*.host5.app[6].startTime = 8100us
*.host5.app[6].stopTime = 8800us
*.host5.app[6].display-name = "type2_0"
*.host5.app[6].destPort = 1000
*.host5.app[7].typename = "UdpBasicApp"
*.host5.app[7].destAddresses = "host0"
*.host5.app[7].source.packetNameFormat = "%M-%m-%c"
*.host5.app[7].source.displayStringTextFormat = "sent %p pk (%l)"
*.host5.app[7].messageLength = 17B
*.host5.app[7].sendInterval = 1ms
*.host5.app[7].startTime = 700us
*.host5.app[7].stopTime = 1800us
*.host5.app[7].display-name = "type2_7"
*.host5.app[7].destPort = 1001
*.host5.app[8].typename = "UdpBasicApp"
*.host5.app[8].destAddresses = "host0"
*.host5.app[8].source.packetNameFormat = "%M-%m-%c"
*.host5.app[8].source.displayStringTextFormat = "sent %p pk (%l)"
*.host5.app[8].messageLength = 17B
*.host5.app[8].sendInterval = 1ms
*.host5.app[8].startTime = 3600us
*.host5.app[8].stopTime = 3900us
*.host5.app[8].display-name = "type2_7"
*.host5.app[8].destPort = 1001
*.host5.app[9].typename = "UdpBasicApp"
*.host5.app[9].destAddresses = "host0"
*.host5.app[9].source.packetNameFormat = "%M-%m-%c"
*.host5.app[9].source.displayStringTextFormat = "sent %p pk (%l)"
*.host5.app[9].messageLength = 17B
*.host5.app[9].sendInterval = 1ms
*.host5.app[9].startTime = 4300us
*.host5.app[9].stopTime = 4900us
*.host5.app[9].display-name = "type2_7"
*.host5.app[9].destPort = 1001
*.host5.app[10].typename = "UdpBasicApp"
*.host5.app[10].destAddresses = "host0"
*.host5.app[10].source.packetNameFormat = "%M-%m-%c"
*.host5.app[10].source.displayStringTextFormat = "sent %p pk (%l)"
*.host5.app[10].messageLength = 17B
*.host5.app[10].sendInterval = 1ms
*.host5.app[10].startTime = 5500us
*.host5.app[10].stopTime = 6200us
*.host5.app[10].display-name = "type2_7"
*.host5.app[10].destPort = 1001
*.host5.app[11].typename = "UdpBasicApp"
*.host5.app[11].destAddresses = "host0"
*.host5.app[11].source.packetNameFormat = "%M-%m-%c"
*.host5.app[11].source.displayStringTextFormat = "sent %p pk (%l)"
*.host5.app[11].messageLength = 17B
*.host5.app[11].sendInterval = 1ms
*.host5.app[11].startTime = 6800us
*.host5.app[11].stopTime = 9000us
*.host5.app[11].display-name = "type2_7"
*.host5.app[11].destPort = 1001
*.host5.app[12].typename = "UdpBasicApp"
*.host5.app[12].destAddresses = "host0"
*.host5.app[12].source.packetNameFormat = "%M-%m-%c"
*.host5.app[12].source.displayStringTextFormat = "sent %p pk (%l)"
*.host5.app[12].messageLength = 17B
*.host5.app[12].sendInterval = 1ms
*.host5.app[12].startTime = 9200us
*.host5.app[12].stopTime = 10000us
*.host5.app[12].display-name = "type2_7"
*.host5.app[12].destPort = 1001
*.host6.numApps = 23
*.host6.app[0].typename = "UdpSourceApp"
*.host6.app[0].io.destAddress = "host1"
*.host6.app[0].source.packetNameFormat = "%M-%m-%c"
*.host6.app[0].source.displayStringTextFormat = "sent %p pk (%l)"
*.host6.app[0].source.packetLength = 22B
*.host6.app[0].source.productionInterval = 1ms
*.host6.app[0].display-name = "type1_0"
*.host6.app[0].io.destPort = 1000
*.host6.app[1].typename = "UdpSinkApp"
*.host6.app[1].io.localPort = 1000
*.host6.app[2].typename = "UdpSinkApp"
*.host6.app[2].io.localPort = 1001
*.host6.app[3].typename = "UdpBasicApp"
*.host6.app[3].destAddresses = "host0"
*.host6.app[3].source.packetNameFormat = "%M-%m-%c"
*.host6.app[3].source.displayStringTextFormat = "sent %p pk (%l)"
*.host6.app[3].messageLength = 16B
*.host6.app[3].sendInterval = 1ms
*.host6.app[3].startTime = 300us
*.host6.app[3].stopTime = 400us
*.host6.app[3].display-name = "type2_5"
*.host6.app[3].destPort = 1000
*.host6.app[4].typename = "UdpBasicApp"
*.host6.app[4].destAddresses = "host0"
*.host6.app[4].source.packetNameFormat = "%M-%m-%c"
*.host6.app[4].source.displayStringTextFormat = "sent %p pk (%l)"
*.host6.app[4].messageLength = 16B
*.host6.app[4].sendInterval = 1ms
*.host6.app[4].startTime = 500us
*.host6.app[4].stopTime = 1600us
*.host6.app[4].display-name = "type2_5"
*.host6.app[4].destPort = 1000
*.host6.app[5].typename = "UdpBasicApp"
*.host6.app[5].destAddresses = "host0"
*.host6.app[5].source.packetNameFormat = "%M-%m-%c"
*.host6.app[5].source.displayStringTextFormat = "sent %p pk (%l)"
*.host6.app[5].messageLength = 16B
*.host6.app[5].sendInterval = 1ms
*.host6.app[5].startTime = 1700us
*.host6.app[5].stopTime = 2000us
*.host6.app[5].display-name = "type2_5"
*.host6.app[5].destPort = 1000
*.host6.app[6].typename = "UdpBasicApp"
*.host6.app[6].destAddresses = "host0"
*.host6.app[6].source.packetNameFormat = "%M-%m-%c"
*.host6.app[6].source.displayStringTextFormat = "sent %p pk (%l)"
*.host6.app[6].messageLength = 16B
*.host6.app[6].sendInterval = 1ms
*.host6.app[6].startTime = 2100us
*.host6.app[6].stopTime = 3100us
*.host6.app[6].display-name = "type2_5"
*.host6.app[6].destPort = 1000
*.host6.app[7].typename = "UdpBasicApp"
*.host6.app[7].destAddresses = "host0"
*.host6.app[7].source.packetNameFormat = "%M-%m-%c"
*.host6.app[7].source.displayStringTextFormat = "sent %p pk (%l)"
*.host6.app[7].messageLength = 16B