[General]
network = TSN_multipath
sim-time-limit = 100ms
*.macForwardingTableConfigurator.typename = ""
*.*.hasStreamRedundancy = true
*.*.bridging.streamRelay.typename = "StreamRelayLayer"
*.*.bridging.streamCoder.typename = "StreamCoderLayer"
*.streamRedundancyConfigurator.typename = "StreamRedundancyConfigurator"
*.host0.eth[0].bitrate = 1000Mbps
*.switch0.eth[0].bitrate = 1000Mbps
*.switch0.eth[1].bitrate = 2400Mbps
*.switch0.eth[2].bitrate = 1200Mbps
*.switch0.eth[3].bitrate = 1900Mbps
*.switch0.eth[4].bitrate = 1400Mbps
*.switch0.eth[5].bitrate = 2200Mbps
*.switch0.eth[6].bitrate = 1200Mbps
*.host1.eth[0].bitrate = 1000Mbps
*.switch1.eth[0].bitrate = 1000Mbps
*.switch1.eth[1].bitrate = 1600Mbps
*.switch1.eth[2].bitrate = 1800Mbps
*.switch1.eth[3].bitrate = 1500Mbps
*.switch1.eth[4].bitrate = 2200Mbps
*.switch1.eth[5].bitrate = 1900Mbps
*.switch1.eth[6].bitrate = 2300Mbps
*.host2.eth[0].bitrate = 1000Mbps
*.switch2.eth[0].bitrate = 1000Mbps
*.switch2.eth[1].bitrate = 1500Mbps
*.switch2.eth[2].bitrate = 2400Mbps
*.switch2.eth[3].bitrate = 1700Mbps
*.switch2.eth[4].bitrate = 2400Mbps
*.switch2.eth[5].bitrate = 2000Mbps
*.switch2.eth[6].bitrate = 1700Mbps
*.switch2.eth[7].bitrate = 2300Mbps
*.switch2.eth[8].bitrate = 1800Mbps
*.switch2.eth[9].bitrate = 1200Mbps
*.host3.eth[0].bitrate = 1000Mbps
*.switch3.eth[0].bitrate = 1000Mbps
*.switch3.eth[1].bitrate = 2400Mbps
*.switch3.eth[2].bitrate = 2200Mbps
*.switch3.eth[3].bitrate = 1700Mbps
*.switch3.eth[4].bitrate = 1300Mbps
*.switch3.eth[5].bitrate = 1800Mbps
*.switch3.eth[6].bitrate = 2000Mbps
*.switch3.eth[7].bitrate = 1900Mbps
*.switch3.eth[8].bitrate = 2400Mbps
*.switch3.eth[9].bitrate = 1900Mbps
*.switch3.eth[10].bitrate = 2300Mbps
*.host4.eth[0].bitrate = 1000Mbps
*.switch4.eth[0].bitrate = 1000Mbps
*.switch4.eth[1].bitrate = 1200Mbps
*.switch4.eth[2].bitrate = 1600Mbps
*.switch4.eth[3].bitrate = 2400Mbps
*.switch4.eth[4].bitrate = 1700Mbps
*.switch4.eth[5].bitrate = 2400Mbps
*.switch4.eth[6].bitrate = 1300Mbps
*.switch4.eth[7].bitrate = 1200Mbps
*.switch4.eth[8].bitrate = 2000Mbps
*.switch4.eth[9].bitrate = 1700Mbps
*.host5.eth[0].bitrate = 1000Mbps
*.switch5.eth[0].bitrate = 1000Mbps
*.switch5.eth[1].bitrate = 1700Mbps
*.switch5.eth[2].bitrate = 1300Mbps
*.switch5.eth[3].bitrate = 1900Mbps
*.switch5.eth[4].bitrate = 2200Mbps
*.switch5.eth[5].bitrate = 2400Mbps
*.switch5.eth[6].bitrate = 2400Mbps
*.switch5.eth[7].bitrate = 2200Mbps
*.host6.eth[0].bitrate = 1000Mbps
*.switch6.eth[0].bitrate = 1000Mbps
*.switch6.eth[1].bitrate = 2400Mbps
*.switch6.eth[2].bitrate = 1800Mbps
*.switch6.eth[3].bitrate = 1400Mbps
*.switch6.eth[4].bitrate = 1900Mbps
*.switch6.eth[5].bitrate = 1800Mbps
*.switch6.eth[6].bitrate = 2300Mbps
*.switch6.eth[7].bitrate = 2000Mbps
*.switch6.eth[8].bitrate = 1400Mbps
*.switch6.eth[9].bitrate = 2000Mbps
*.switch6.eth[10].bitrate = 2200Mbps
*.switch6.eth[11].bitrate = 2000Mbps
*.switch6.eth[12].bitrate = 1600Mbps
*.host7.eth[0].bitrate = 1000Mbps
*.switch7.eth[0].bitrate = 1000Mbps
*.switch7.eth[1].bitrate = 1900Mbps
*.switch7.eth[2].bitrate = 2000Mbps
*.switch7.eth[3].bitrate = 2000Mbps
*.switch7.eth[4].bitrate = 1300Mbps
*.switch7.eth[5].bitrate = 2200Mbps
*.switch7.eth[6].bitrate = 1400Mbps
*.switch7.eth[7].bitrate = 2400Mbps
*.switch7.eth[8].bitrate = 1400Mbps
*.host8.eth[0].bitrate = 1000Mbps
*.switch8.eth[0].bitrate = 1000Mbps
*.switch8.eth[1].bitrate = 1700Mbps
*.switch8.eth[2].bitrate = 2400Mbps
*.switch8.eth[3].bitrate = 2000Mbps
*.switch8.eth[4].bitrate = 2200Mbps
*.switch8.eth[5].bitrate = 1200Mbps
*.switch8.eth[6].bitrate = 1700Mbps
*.switch8.eth[7].bitrate = 2200Mbps
*.switch8.eth[8].bitrate = 2000Mbps
*.switch8.eth[9].bitrate = 1800Mbps
*.switch8.eth[10].bitrate = 1600Mbps
*.host9.eth[0].bitrate = 1000Mbps
*.switch9.eth[0].bitrate = 1000Mbps
*.switch9.eth[1].bitrate = 1800Mbps
*.switch9.eth[2].bitrate = 2300Mbps
*.switch9.eth[3].bitrate = 1900Mbps
*.switch9.eth[4].bitrate = 1200Mbps
*.switch9.eth[5].bitrate = 2200Mbps
*.switch9.eth[6].bitrate = 1800Mbps
*.switch9.eth[7].bitrate = 1200Mbps
*.switch9.eth[8].bitrate = 2300Mbps
*.switch9.eth[9].bitrate = 1600Mbps
*.switch9.eth[10].bitrate = 1400Mbps
*.switch9.eth[11].bitrate = 1600Mbps
*.host0.numApps = 2
*.host0.app[0].typename = "UdpSourceApp"
*.host0.app[0].io.destAddress = "host3"
*.host0.app[0].source.packetNameFormat = "%M-%m-%c"
*.host0.app[0].source.displayStringTextFormat = "sent %p pk (%l)"
*.host0.app[0].source.packetLength = 22B
*.host0.app[0].source.productionInterval = 1ms
*.host0.app[0].display-name = "type1_2"
*.host0.app[0].io.destPort = 1000
*.host0.app[1].typename = "UdpSinkApp"
*.host0.app[1].io.localPort = 1000
*.host1.numApps = 4
*.host1.app[0].typename = "UdpBasicApp"
*.host1.app[0].destAddresses = "host8"
*.host1.app[0].source.packetNameFormat = "%M-%m-%c"
*.host1.app[0].source.displayStringTextFormat = "sent %p pk (%l)"
*.host1.app[0].messageLength = 23B
*.host1.app[0].sendInterval = 1ms
*.host1.app[0].startTime = 0ms
*.host1.app[0].stopTime = 6ms
*.host1.app[0].display-name = "type2_13"
*.host1.app[0].destPort = 1004
*.host1.app[1].typename = "UdpBasicApp"
*.host1.app[1].destAddresses = "host8"
*.host1.app[1].source.packetNameFormat = "%M-%m-%c"
*.host1.app[1].source.displayStringTextFormat = "sent %p pk (%l)"
*.host1.app[1].messageLength = 23B
*.host1.app[1].sendInterval = 1ms
*.host1.app[1].startTime = 17ms
*.host1.app[1].stopTime = 22ms
*.host1.app[1].display-name = "type2_13"
*.host1.app[1].destPort = 1004
*.host1.app[2].typename = "UdpBasicApp"
*.host1.app[2].destAddresses = "host8"
*.host1.app[2].source.packetNameFormat = "%M-%m-%c"
*.host1.app[2].source.displayStringTextFormat = "sent %p pk (%l)"
*.host1.app[2].messageLength = 23B
*.host1.app[2].sendInterval = 1ms
*.host1.app[2].startTime = 61ms
*.host1.app[2].stopTime = 83ms
*.host1.app[2].display-name = "type2_13"
*.host1.app[2].destPort = 1004
*.host1.app[3].typename = "UdpBasicApp"
*.host1.app[3].destAddresses = "host8"
*.host1.app[3].source.packetNameFormat = "%M-%m-%c"
*.host1.app[3].source.displayStringTextFormat = "sent %p pk (%l)"
*.host1.app[3].messageLength = 23B
*.host1.app[3].sendInterval = 1ms
*.host1.app[3].startTime = 87ms
*.host1.app[3].stopTime = 90ms
*.host1.app[3].display-name = "type2_13"
*.host1.app[3].destPort = 1004
*.host2.numApps = 27
*.host2.app[0].typename = "UdpSourceApp"
*.host2.app[0].io.destAddress = "host8"
*.host2.app[0].source.packetNameFormat = "%M-%m-%c"
*.host2.app[0].source.displayStringTextFormat = "sent %p pk (%l)"
*.host2.app[0].source.packetLength = 20B
*.host2.app[0].source.productionInterval = 1ms
*.host2.app[0].display-name = "type1_0"
*.host2.app[0].io.destPort = 1000
*.host2.app[1].typename = "UdpBasicApp"
*.host2.app[1].destAddresses = "host8"
*.host2.app[1].source.packetNameFormat = "%M-%m-%c"
*.host2.app[1].source.displayStringTextFormat = "sent %p pk (%l)"
*.host2.app[1].messageLength = 24B
*.host2.app[1].sendInterval = 1ms
*.host2.app[1].startTime = 4ms
*.host2.app[1].stopTime = 16ms
*.host2.app[1].display-name = "type2_3"
*.host2.app[1].destPort = 1002
*.host2.app[2].typename = "UdpBasicApp"
*.host2.app[2].destAddresses = "host8"
*.host2.app[2].source.packetNameFormat = "%M-%m-%c"
*.host2.app[2].source.displayStringTextFormat = "sent %p pk (%l)"
*.host2.app[2].messageLength = 24B
*.host2.app[2].sendInterval = 1ms
*.host2.app[2].startTime = 24ms
*.host2.app[2].stopTime = 49ms
*.host2.app[2].display-name = "type2_3"
*.host2.app[2].destPort = 1002
*.host2.app[3].typename = "UdpBasicApp"
*.host2.app[3].destAddresses = "host8"
*.host2.app[3].source.packetNameFormat = "%M-%m-%c"
*.host2.app[3].source.displayStringTextFormat = "sent %p pk (%l)"
*.host2.app[3].messageLength = 24B
*.host2.app[3].sendInterval = 1ms
*.host2.app[3].startTime = 50ms
*.host2.app[3].stopTime = 52ms
*.host2.app[3].display-name = "type2_3"
*.host2.app[3].destPort = 1002
*.host2.app[4].typename = "UdpBasicApp"
*.host2.app[4].destAddresses = "host8"
*.host2.app[4].source.packetNameFormat = "%M-%m-%c"
*.host2.app[4].source.displayStringTextFormat = "sent %p pk (%l)"
*.host2.app[4].messageLength = 24B
*.host2.app[4].sendInterval = 1ms
*.host2.app[4].startTime = 54ms
*.host2.app[4].stopTime = 57ms
*.host2.app[4].display-name = "type2_3"
*.host2.app[4].destPort = 1002
*.host2.app[5].typename = "UdpBasicApp"
*.host2.app[5].destAddresses = "host8"
*.host2.app[5].source.packetNameFormat = "%M-%m-%c"
*.host2.app[5].source.displayStringTextFormat = "sent %p pk (%l)"
*.host2.app[5].messageLength = 24B
*.host2.app[5].sendInterval = 1ms
*.host2.app[5].startTime = 59ms
*.host2.app[5].stopTime = 60ms
*.host2.app[5].display-name = "type2_3"
*.host2.app[5].destPort = 1002
*.host2.app[6].typename = "UdpBasicApp"
*.host2.app[6].destAddresses = "host8"
*.host2.app[6].source.packetNameFormat = "%M-%m-%c"
*.host2.app[6].source.displayStringTextFormat = "sent %p pk (%l)"
*.host2.app[6].messageLength = 24B
*.host2.app[6].sendInterval = 1ms
*.host2.app[6].startTime = 91ms
*.host2.app[6].stopTime = 100ms
*.host2.app[6].display-name = "type2_3"
*.host2.app[6].destPort = 1002
*.host2.app[7].typename = "UdpBasicApp"
*.host2.app[7].destAddresses = "host6"
*.host2.app[7].source.packetNameFormat = "%M-%m-%c"
*.host2.app[7].source.displayStringTextFormat = "sent %p pk (%l)"
*.host2.app[7].messageLength = 12B
*.host2.app[7].sendInterval = 1ms
*.host2.app[7].startTime = 16ms
*.host2.app[7].stopTime = 25ms
*.host2.app[7].display-name = "type2_5"
*.host2.app[7].destPort = 1001
*.host2.app[8].typename = "UdpBasicApp"
*.host2.app[8].destAddresses = "host6"
*.host2.app[8].source.packetNameFormat = "%M-%m-%c"
*.host2.app[8].source.displayStringTextFormat = "sent %p pk (%l)"
*.host2.app[8].messageLength = 12B
*.host2.app[8].sendInterval = 1ms
*.host2.app[8].startTime = 30ms
*.host2.app[8].stopTime = 31ms
*.host2.app[8].display-name = "type2_5"
*.host2.app[8].destPort = 1001
*.host2.app[9].typename = "UdpBasicApp"
*.host2.app[9].destAddresses = "host6"
*.host2.app[9].source.packetNameFormat = "%M-%m-%c"
*.host2.app[9].source.displayStringTextFormat = "sent %p pk (%l)"
*.host2.app[9].messageLength = 12B
*.host2.app[9].sendInterval = 1ms
*.host2.app[9].startTime = 33ms
*.host2.app[9].stopTime = 37ms
*.host2.app[9].display-name = "type2_5"
*.host2.app[9].destPort = 1001
*.host2.app[10].typename = "UdpBasicApp"
*.host2.app[10].destAddresses = "host6"
*.host2.app[10].source.packetNameFormat = "%M-%m-%c"
*.host2.app[10].source.displayStringTextFormat = "sent %p pk (%l)"
*.host2.app[10].messageLength = 12B
*.host2.app[10].sendInterval = 1ms
*.host2.app[10].startTime = 49ms
*.host2.app[10].stopTime = 50ms
*.host2.app[10].display-name = "type2_5"
*.host2.app[10].destPort = 1001
*.host2.app[11].typename = "UdpBasicApp"
*.host2.app[11].destAddresses = "host6"
*.host2.app[11].source.packetNameFormat = "%M-%m-%c"
*.host2.app[11].source.displayStringTextFormat = "sent %p pk (%l)"
*.host2.app[11].messageLength = 12B
*.host2.app[11].sendInterval = 1ms
*.host2.app[11].startTime = 58ms
*.host2.app[11].stopTime = 63ms
*.host2.app[11].display-name = "type2_5"
*.host2.app[11].destPort = 1001
*.host2.app[12].typename = "UdpBasicApp"
*.host2.app[12].destAddresses = "host6"
*.host2.app[12].source.packetNameFormat = "%M-%m-%c"
*.host2.app[12].source.displayStringTextFormat = "sent %p pk (%l)"
*.host2.app[12].messageLength = 12B
*.host2.app[12].sendInterval = 1ms
*.host2.app[12].startTime = 66ms
*.host2.app[12].stopTime = 72ms
*.host2.app[12].display-name = "type2_5"
*.host2.app[12].destPort = 1001
*.host2.app[13].typename = "UdpBasicApp"
*.host2.app[13].destAddresses = "host6"
*.host2.app[13].source.packetNameFormat = "%M-%m-%c"
*.host2.app[13].source.displayStringTextFormat = "sent %p pk (%l)"
*.host2.app[13].messageLength = 12B
*.host2.app[13].sendInterval = 1ms
*.host2.app[13].startTime = 75ms
*.host2.app[13].stopTime = 91ms
*.host2.app[13].display-name = "type2_5"
*.host2.app[13].destPort = 1001
*.host2.app[14].typename = "UdpBasicApp"
*.host2.app[14].destAddresses = "host5"
*.host2.app[14].source.packetNameFormat = "%M-%m-%c"
*.host2.app[14].source.displayStringTextFormat = "sent %p pk (%l)"
*.host2.app[14].messageLength = 17B
*.host2.app[14].sendInterval = 1ms
*.host2.app[14].startTime = 2ms
*.host2.app[14].stopTime = 10ms
*.host2.app[14].display-name = "type2_7"
*.host2.app[14].destPort = 1000
*.host2.app[15].typename = "UdpBasicApp"
*.host2.app[15].destAddresses = "host5"
*.host2.app[15].source.packetNameFormat = "%M-%m-%c"
*.host2.app[15].source.displayStringTextFormat = "sent %p pk (%l)"
*.host2.app[15].messageLength = 17B
*.host2.app[15].sendInterval = 1ms
*.host2.app[15].startTime = 19ms
*.host2.app[15].stopTime = 38ms
*.host2.app[15].display-name = "type2_7"
*.host2.app[15].destPort = 1000
*.host2.app[16].typename = "UdpBasicApp"
*.host2.app[16].destAddresses = "host5"
*.host2.app[16].source.packetNameFormat = "%M-%m-%c"
*.host2.app[16].source.displayStringTextFormat = "sent %p pk (%l)"
*.host2.app[16].messageLength = 17B
*.host2.app[16].sendInterval = 1ms
*.host2.app[16].startTime = 39ms
*.host2.app[16].stopTime = 56ms
*.host2.app[16].display-name = "type2_7"
*.host2.app[16].destPort = 1000
*.host2.app[17].typename = "UdpBasicApp"
*.host2.app[17].destAddresses = "host5"
*.host2.app[17].source.packetNameFormat = "%M-%m-%c"
*.host2.app[17].source.displayStringTextFormat = "sent %p pk (%l)"
*.host2.app[17].messageLength = 17B
*.host2.app[17].sendInterval = 1ms
*.host2.app[17].startTime = 59ms
*.host2.app[17].stopTime = 91ms
*.host2.app[17].display-name = "type2_7"
*.host2.app[17].destPort = 1000
*.host2.app[18].typename = "UdpBasicApp"
*.host2.app[18].destAddresses = "host5"
*.host2.app[18].source.packetNameFormat = "%M-%m-%c"
*.host2.app[18].source.displayStringTextFormat = "sent %p pk (%l)"
*.host2.app[18].messageLength = 17B
*.host2.app[18].sendInterval = 1ms
*.host2.app[18].startTime = 92ms
*.host2.app[18].stopTime = 100ms
*.host2.app[18].display-name = "type2_7"
*.host2.app[18].destPort = 1000
*.host2.app[19].typename = "UdpBasicApp"
*.host2.app[19].destAddresses = "host8"
*.host2.app[19].source.packetNameFormat = "%M-%m-%c"
*.host2.app[19].source.displayStringTextFormat = "sent %p pk (%l)"
*.host2.app[19].messageLength = 21B
*.host2.app[19].sendInterval = 1ms
*.host2.app[19].startTime = 2ms
*.host2.app[19].stopTime = 6ms
*.host2.app[19].display-name = "type2_12"
*.host2.app[19].destPort = 1003
*.host2.app[20].typename = "UdpBasicApp"
*.host2.app[20].destAddresses = "host8"
*.host2.app[20].source.packetNameFormat = "%M-%m-%c"
*.host2.app[20].source.displayStringTextFormat = "sent %p pk (%l)"
*.host2.app[20].messageLength = 21B
*.host2.app[20].sendInterval = 1ms
*.host2.app[20].startTime = 8ms
*.host2.app[20].stopTime = 30ms
*.host2.app[20].display-name = "type2_12"
*.host2.app[20].destPort = 1003
*.host2.app[21].typename = "UdpBasicApp"
*.host2.app[21].destAddresses = "host8"
*.host2.app[21].source.packetNameFormat = "%M-%m-%c"
*.host2.app[21].source.displayStringTextFormat = "sent %p pk (%l)"
*.host2.app[21].messageLength = 21B
*.host2.app[21].sendInterval = 1ms
*.host2.app[21].startTime = 37ms
*.host2.app[21].stopTime = 38ms
*.host2.app[21].display-name = "type2_12"
*.host2.app[21].destPort = 1003
*.host2.app[22].typename = "UdpBasicApp"
*.host2.app[22].destAddresses = "host8"
*.host2.app[22].source.packetNameFormat = "%M-%m-%c"
*.host2.app[22].source.displayStringTextFormat = "sent %p pk (%l)"
*.host2.app[22].messageLength = 21B
*.host2.app[22].sendInterval = 1ms
*.host2.app[22].startTime = 42ms
*.host2.app[22].stopTime = 48ms
*.host2.app[22].display-name = "type2_12"
*.host2.app[22].destPort = 1003
*.host2.app[23].typename = "UdpBasicApp"
*.host2.app[23].destAddresses = "host8"
*.host2.app[23].source.packetNameFormat = "%M-%m-%c"
*.host2.app[23].source.displayStringTextFormat = "sent %p pk (%l)"
*.host2.app[23].messageLength = 21B
*.host2.app[23].sendInterval = 1ms
*.host2.app[23].startTime = 49ms
*.host2.app[23].stopTime = 65ms
*.host2.app[23].display-name = "type2_12"
*.host2.app[23].destPort = 1003
*.host2.app[24].typename = "UdpBasicApp"
*.host2.app[24].destAddresses = "host8"
*.host2.app[24].source.packetNameFormat = "%M-%m-%c"
*.host2.app[24].source.displayStringTextFormat = "sent %p pk (%l)"
*.host2.app[24].messageLength = 21B
*.host2.app[24].sendInterval = 1ms
*.host2.app[24].startTime = 77ms
*.host2.app[24].stopTime = 87ms
*.host2.app[24].display-name = "type2_12"
*.host2.app[24].destPort = 1003
*.host2.app[25].typename = "UdpBasicApp"
*.host2.app[25].destAddresses = "host8"
*.host2.app[25].source.packetNameFormat = "%M-%m-%c"
*.host2.app[25].source.displayStringTextFormat = "sent %p pk (%l)"
*.host2.app[25].messageLength = 21B
*.host2.app[25].sendInterval = 1ms
*.host2.app[25].startTime = 92ms
*.host2.app[25].stopTime = 100ms
*.host2.app[25].display-name = "type2_12"
*.host2.app[25].destPort = 1003
*.host2.app[26].typename = "UdpSinkApp"
*.host2.app[26].io.localPort = 1000
*.host3.numApps = 17
*.host3.app[0].typename = "UdpSinkApp"
*.host3.app[0].io.localPort = 1000
*.host3.app[1].typename = "UdpSinkApp"
*.host3.app[1].io.localPort = 1001
*.host3.app[2].typename = "UdpSinkApp"
*.host3.app[2].io.localPort = 1002
*.host3.app[3].typename = "UdpSinkApp"
*.host3.app[3].io.localPort = 1003
*.host3.app[4].typename = "UdpSinkApp"
*.host3.app[4].io.localPort = 1004
*.host3.app[5].typename = "UdpBasicApp"
*.host3.app[5].destAddresses = "host4"
*.host3.app[5].source.packetNameFormat = "%M-%m-%c"
*.host3.app[5].source.displayStringTextFormat = "sent %p pk (%l)"
*.host3.app[5].messageLength = 15B
*.host3.app[5].sendInterval = 1ms
*.host3.app[5].startTime = 5ms
*.host3.app[5].stopTime = 9ms
*.host3.app[5].display-name = "type2_11"
*.host3.app[5].destPort = 1001
*.host3.app[6].typename = "UdpBasicApp"
*.host3.app[6].destAddresses = "host4"
*.host3.app[6].source.packetNameFormat = "%M-%m-%c"
*.host3.app[6].source.displayStringTextFormat = "sent %p pk (%l)"
*.host3.app[6].messageLength = 15B
*.host3.app[6].sendInterval = 1ms
*.host3.app[6].startTime = 10ms
*.host3.app[6].stopTime = 29ms
*.host3.app[6].display-name = "type2_11"
*.host3.app[6].destPort = 1001
*.host3.app[7].typename = "UdpBasicApp"
*.host3.app[7].destAddresses = "host4"
*.host3.app[7].source.packetNameFormat = "%M-%m-%c"
*.host3.app[7].source.displayStringTextFormat = "sent %p pk (%l)"
*.host3.app[7].messageLength = 15B
*.host3.app[7].sendInterval = 1ms
*.host3.app[7].startTime = 53ms
*.host3.app[7].stopTime = 76ms
*.host3.app[7].display-name = "type2_11"
*.host3.app[7].destPort = 1001
*.host3.app[8].typename = "UdpBasicApp"
*.host3.app[8].destAddresses = "host4"
*.host3.app[8].source.packetNameFormat = "%M-%m-%c"
*.host3.app[8].source.displayStringTextFormat = "sent %p pk (%l)"
*.host3.app[8].messageLength = 15B
*.host3.app[8].sendInterval = 1ms
*.host3.app[8].startTime = 78ms
*.host3.app[8].stopTime = 98ms
*.host3.app[8].display-name = "type2_11"
*.host3.app[8].destPort = 1001
*.host3.app[9].typename = "UdpBasicApp"
*.host3.app[9].destAddresses = "host4"
*.host3.app[9].source.packetNameFormat = "%M-%m-%c"
*.host3.app[9].source.displayStringTextFormat = "sent %p pk (%l)"
*.host3.app[9].messageLength = 15B
*.host3.app[9].sendInterval = 1ms
*.host3.app[9].startTime = 99ms
*.host3.app[9].stopTime = 100ms
*.host3.app[9].display-name = "type2_11"
*.host3.app[9].destPort = 1001
*.host3.app[10].typename = "UdpBasicApp"
*.host3.app[10].destAddresses = "host2"
*.host3.app[10].source.packetNameFormat = "%M-%m-%c"
*.host3.app[10].source.displayStringTextFormat = "sent %p pk (%l)"
*.host3.app[10].messageLength = 17B
*.host3.app[10].sendInterval = 1ms
*.host3.app[10].startTime = 12ms
*.host3.app[10].stopTime = 20ms
*.host3.app[10].display-name = "type2_14"
*.host3.app[10].destPort = 1000
*.host3.app[11].typename = "UdpBasicApp"
*.host3.app[11].destAddresses = "host2"
*.host3.app[11].source.packetNameFormat = "%M-%m-%c"
*.host3.app[11].source.displayStringTextFormat = "sent %p pk (%l)"
*.host3.app[11].messageLength = 17B
*.host3.app[11].sendInterval = 1ms
*.host3.app[11].startTime = 37ms
*.host3.app[11].stopTime = 46ms
*.host3.app[11].display-name = "type2_14"
*.host3.app[11].destPort = 1000
*.host3.app[12].typename = "UdpBasicApp"
*.host3.app[12].destAddresses = "host2"
*.host3.app[12].source.packetNameFormat = "%M-%m-%c"
*.host3.app[12].source.displayStringTextFormat = "sent %p pk (%l)"
*.host3.app[12].messageLength = 17B
*.host3.app[12].sendInterval = 1ms
*.host3.app[12].startTime = 47ms
*.host3.app[12].stopTime = 52ms
*.host3.app[12].display-name = "type2_14"
*.host3.app[12].destPort = 1000
*.host3.app[13].typename = "UdpBasicApp"
*.host3.app[13].destAddresses = "host2"
*.host3.app[13].source.packetNameFormat = "%M-%m-%c"
*.host3.app[13].source.displayStringTextFormat = "sent %p pk (%l)"
*.host3.app[13].messageLength = 17B
*.host3.app[13].sendInterval = 1ms
*.host3.app[13].startTime = 55ms
*.host3.app[13].stopTime = 58ms
*.host3.app[13].display-name = "type2_14"
*.host3.app[13].destPort = 1000
*.host3.app[14].typename = "UdpBasicApp"
*.host3.app[14].destAddresses = "host2"
*.host3.app[14].source.packetNameFormat = "%M-%m-%c"
*.host3.app[14].source.displayStringTextFormat = "sent %p pk (%l)"
*.host3.app[14].messageLength = 17B
*.host3.app[14].sendInterval = 1ms
*.host3.app[14].startTime = 61ms
*.host3.app[14].stopTime = 68ms
*.host3.app[14].display-name = "type2_14"
*.host3.app[14].destPort = 1000
*.host3.app[15].typename = "UdpBasicApp"
*.host3.app[15].destAddresses = "host2"
*.host3.app[15].source.packetNameFormat = "%M-%m-%c"
*.host3.app[15].source.displayStringTextFormat = "sent %p pk (%l)"
*.host3.app[15].messageLength = 17B
*.host3.app[15].sendInterval = 1ms
*.host3.app[15].startTime = 70ms
*.host3.app[15].stopTime = 84ms
*.host3.app[15].display-name = "type2_14"
*.host3.app[15].destPort = 1000
*.host3.app[16].typename = "UdpBasicApp"
*.host3.app[16].destAddresses = "host2"
*.host3.app[16].source.packetNameFormat = "%M-%m-%c"
*.host3.app[16].source.displayStringTextFormat = "sent %p pk (%l)"
*.host3.app[16].messageLength = 17B
*.host3.app[16].sendInterval = 1ms
*.host3.app[16].startTime = 93ms
*.host3.app[16].stopTime = 100ms
*.host3.app[16].display-name = "type2_14"
*.host3.app[16].destPort = 1000
*.host4.numApps = 8
*.host4.app[0].typename = "UdpSinkApp"
*.host4.app[0].io.localPort = 1000
*.host4.app[1].typename = "UdpBasicApp"
*.host4.app[1].destAddresses = "host3"
*.host4.app[1].source.packetNameFormat = "%M-%m-%c"
*.host4.app[1].source.displayStringTextFormat = "sent %p pk (%l)"
*.host4.app[1].messageLength = 12B
*.host4.app[1].sendInterval = 1ms
*.host4.app[1].startTime = 6ms
*.host4.app[1].stopTime = 13ms
*.host4.app[1].display-name = "type2_4"
*.host4.app[1].destPort = 1003
*.host4.app[2].typename = "UdpBasicApp"
*.host4.app[2].destAddresses = "host3"
*.host4.app[2].source.packetNameFormat = "%M-%m-%c"
*.host4.app[2].source.displayStringTextFormat = "sent %p pk (%l)"
*.host4.app[2].messageLength = 12B
*.host4.app[2].sendInterval = 1ms
*.host4.app[2].startTime = 31ms
*.host4.app[2].stopTime = 48ms
*.host4.app[2].display-name = "type2_4"
*.host4.app[2].destPort = 1003
*.host4.app[3].typename = "UdpBasicApp"
*.host4.app[3].destAddresses = "host3"
*.host4.app[3].source.packetNameFormat = "%M-%m-%c"
*.host4.app[3].source.displayStringTextFormat = "sent %p pk (%l)"
*.host4.app[3].messageLength = 12B
*.host4.app[3].sendInterval = 1ms
*.host4.app[3].startTime = 53ms
*.host4.app[3].stopTime = 63ms
*.host4.app[3].display-name = "type2_4"
*.host4.app[3].destPort = 1003
*.host4.app[4].typename = "UdpBasicApp"
*.host4.app[4].destAddresses = "host3"
*.host4.app[4].source.packetNameFormat = "%M-%m-%c"
*.host4.app[4].source.displayStringTextFormat = "sent %p pk (%l)"
*.host4.app[4].messageLength = 12B
*.host4.app[4].sendInterval = 1ms
*.host4.app[4].startTime = 66ms
*.host4.app[4].stopTime = 70ms
*.host4.app[4].display-name = "type2_4"
*.host4.app[4].destPort = 1003
*.host4.app[5].typename = "UdpBasicApp"
*.host4.app[5].destAddresses = "host3"
*.host4.app[5].source.packetNameFormat = "%M-%m-%c"
*.host4.app[5].source.displayStringTextFormat = "sent %p pk (%l)"
*.host4.app[5].messageLength = 12B
*.host4.app[5].sendInterval = 1ms
*.host4.app[5].startTime = 72ms
*.host4.app[5].stopTime = 92ms
*.host4.app[5].display-name = "type2_4"
*.host4.app[5].destPort = 1003
*.host4.app[6].typename = "UdpBasicApp"
*.host4.app[6].destAddresses = "host3"
*.host4.app[6].source.packetNameFormat = "%M-%m-%c"
*.host4.app[6].source.displayStringTextFormat = "sent %p pk (%l)"
*.host4.app[6].messageLength = 12B
*.host4.app[6].sendInterval = 1ms
*.host4.app[6].startTime = 93ms
*.host4.app[6].stopTime = 99ms
*.host4.app[6].display-name = "type2_4"
*.host4.app[6].destPort = 1003
*.host4.app[7].typename = "UdpSinkApp"
*.host4.app[7].io.localPort = 1001
*.host5.numApps = 11
*.host5.app[0].typename = "UdpSourceApp"
*.host5.app[0].io.destAddress = "host9"
*.host5.app[0].source.packetNameFormat = "%M-%m-%c"
*.host5.app[0].source.displayStringTextFormat = "sent %p pk (%l)"
*.host5.app[0].source.packetLength = 17B
*.host5.app[0].source.productionInterval = 1ms
*.host5.app[0].display-name = "type1_3"
*.host5.app[0].io.destPort = 1000
*.host5.app[1].typename = "UdpBasicApp"
*.host5.app[1].destAddresses = "host8"
*.host5.app[1].source.packetNameFormat = "%M-%m-%c"
*.host5.app[1].source.displayStringTextFormat = "sent %p pk (%l)"
*.host5.app[1].messageLength = 14B
*.host5.app[1].sendInterval = 1ms
*.host5.app[1].startTime = 19ms
*.host5.app[1].stopTime = 77ms
*.host5.app[1].display-name = "type2_1"
*.host5.app[1].destPort = 1001
*.host5.app[2].typename = "UdpBasicApp"
*.host5.app[2].destAddresses = "host8"
*.host5.app[2].source.packetNameFormat = "%M-%m-%c"
*.host5.app[2].source.displayStringTextFormat = "sent %p pk (%l)"
*.host5.app[2].messageLength = 14B
*.host5.app[2].sendInterval = 1ms
*.host5.app[2].startTime = 86ms
*.host5.app[2].stopTime = 92ms
*.host5.app[2].display-name = "type2_1"
*.host5.app[2].destPort = 1001
*.host5.app[3].typename = "UdpSinkApp"
*.host5.app[3].io.localPort = 1000
*.host5.app[4].typename = "UdpBasicApp"
*.host5.app[4].destAddresses = "host3"
*.host5.app[4].source.packetNameFormat = "%M-%m-%c"
*.host5.app[4].source.displayStringTextFormat = "sent %p pk (%l)"
*.host5.app[4].messageLength = 17B
*.host5.app[4].sendInterval = 1ms
*.host5.app[4].startTime = 3ms
*.host5.app[4].stopTime = 13ms
*.host5.app[4].display-name = "type2_8"
*.host5.app[4].destPort = 1004
*.host5.app[5].typename = "UdpBasicApp"
*.host5.app[5].destAddresses = "host3"
*.host5.app[5].source.packetNameFormat = "%M-%m-%c"
*.host5.app[5].source.displayStringTextFormat = "sent %p pk (%l)"
*.host5.app[5].messageLength = 17B
*.host5.app[5].sendInterval = 1ms
*.host5.app[5].startTime = 19ms
*.host5.app[5].stopTime = 26ms
*.host5.app[5].display-name = "type2_8"
*.host5.app[5].destPort = 1004
*.host5.app[6].typename = "UdpBasicApp"
*.host5.app[6].destAddresses = "host3"
*.host5.app[6].source.packetNameFormat = "%M-%m-%c"
*.host5.app[6].source.displayStringTextFormat = "sent %p pk (%l)"
*.host5.app[6].messageLength = 17B
*.host5.app[6].sendInterval = 1ms
*.host5.app[6].startTime = 29ms
*.host5.app[6].stopTime = 36ms
*.host5.app[6].display-name = "type2_8"
*.host5.app[6].destPort = 1004
*.host5.app[7].typename = "UdpBasicApp"
*.host5.app[7].destAddresses = "host3"
*.host5.app[7].source.packetNameFormat = "%M-%m-%c"
*.host5.app[7].source.displayStringTextFormat = "sent %p pk (%l)"
*.host5.app[7].messageLength = 17B
*.host5.app[7].sendInterval = 1ms
*.host5.app[7].startTime = 44ms
*.host5.app[7].stopTime = 52ms
*.host5.app[7].display-name = "type2_8"
*.host5.app[7].destPort = 1004
*.host5.app[8].typename = "UdpBasicApp"
*.host5.app[8].destAddresses = "host3"
*.host5.app[8].source.packetNameFormat = "%M-%m-%c"
*.host5.app[8].source.displayStringTextFormat = "sent %p pk (%l)"
*.host5.app[8].messageLength = 17B
*.host5.app[8].sendInterval = 1ms
*.host5.app[8].startTime = 55ms
*.host5.app[8].stopTime = 70ms
*.host5.app[8].display-name = "type2_8"
*.host5.app[8].destPort = 1004
*.host5.app[9].typename = "UdpBasicApp"
*.host5.app[9].destAddresses = "host3"
*.host5.app[9].source.packetNameFormat = "%M-%m-%c"
*.host5.app[9].source.displayStringTextFormat = "sent %p pk (%l)"
*.host5.app[9].messageLength = 17B
*.host5.app[9].sendInterval = 1ms
*.host5.app[9].startTime = 76ms
*.host5.app[9].stopTime = 84ms
*.host5.app[9].display-name = "type2_8"
*.host5.app[9].destPort = 1004
*.host5.app[10].typename = "UdpBasicApp"
*.host5.app[10].destAddresses = "host3"
*.host5.app[10].source.packetNameFormat = "%M-%m-%c"
*.host5.app[10].source.displayStringTextFormat = "sent %p pk (%l)"
*.host5.app[10].messageLength = 17B
*.host5.app[10].sendInterval = 1ms
*.host5.app[10].startTime = 86ms
*.host5.app[10].stopTime = 96ms
*.host5.app[10].display-name = "type2_8"
*.host5.app[10].destPort = 1004
*.host6.numApps = 11
*.host6.app[0].typename = "UdpSinkApp"
*.host6.app[0].io.localPort = 1000
*.host6.app[1].typename = "UdpBasicApp"
*.host6.app[1].destAddresses = "host4"
*.host6.app[1].source.packetNameFormat = "%M-%m-%c"
*.host6.app[1].source.displayStringTextFormat = "sent %p pk (%l)"
*.host6.app[1].messageLength = 19B
*.host6.app[1].sendInterval = 1ms
*.host6.app[1].startTime = 3ms
*.host6.app[1].stopTime = 4ms
*.host6.app[1].display-name = "type2_0"
*.host6.app[1].destPort = 1000
*.host6.app[2].typename = "UdpBasicApp"
*.host6.app[2].destAddresses = "host4"
*.host6.app[2].source.packetNameFormat = "%M-%m-%c"
*.host6.app[2].source.displayStringTextFormat = "sent %p pk (%l)"
*.host6.app[2].messageLength = 19B
*.host6.app[2].sendInterval = 1ms
*.host6.app[2].startTime = 23ms
*.host6.app[2].stopTime = 29ms
*.host6.app[2].display-name = "type2_0"
*.host6.app[2].destPort = 1000
*.host6.app[3].typename = "UdpBasicApp"
*.host6.app[3].destAddresses = "host4"
*.host6.app[3].source.packetNameFormat = "%M-%m-%c"
*.host6.app[3].source.displayStringTextFormat = "sent %p pk (%l)"
*.host6.app[3].messageLength = 19B
*.host6.app[3].sendInterval = 1ms
*.host6.app[3].startTime = 37ms