[General]
network = TSN_multipath
sim-time-limit = 10ms
*.macForwardingTableConfigurator.typename = ""
*.*.hasStreamRedundancy = true
*.*.bridging.streamRelay.typename = "StreamRelayLayer"
*.*.bridging.streamCoder.typename = "StreamCoderLayer"
*.streamRedundancyConfigurator.typename = "StreamRedundancyConfigurator"
*.host0.eth[0].bitrate = 100Mbps
*.switch0.eth[0].bitrate = 100Mbps
*.switch0.eth[1].bitrate = 150Mbps
*.switch0.eth[2].bitrate = 220Mbps
*.switch0.eth[3].bitrate = 130Mbps
*.switch0.eth[4].bitrate = 190Mbps
*.host1.eth[0].bitrate = 100Mbps
*.switch1.eth[0].bitrate = 100Mbps
*.switch1.eth[1].bitrate = 160Mbps
*.switch1.eth[2].bitrate = 180Mbps
*.switch1.eth[3].bitrate = 190Mbps
*.host2.eth[0].bitrate = 100Mbps
*.switch2.eth[0].bitrate = 100Mbps
*.switch2.eth[1].bitrate = 150Mbps
*.switch2.eth[2].bitrate = 160Mbps
*.switch2.eth[3].bitrate = 190Mbps
*.switch2.eth[4].bitrate = 190Mbps
*.switch2.eth[5].bitrate = 180Mbps
*.switch2.eth[6].bitrate = 130Mbps
*.host3.eth[0].bitrate = 100Mbps
*.switch3.eth[0].bitrate = 100Mbps
*.switch3.eth[1].bitrate = 220Mbps
*.switch3.eth[2].bitrate = 180Mbps
*.switch3.eth[3].bitrate = 130Mbps
*.host4.eth[0].bitrate = 100Mbps
*.switch4.eth[0].bitrate = 100Mbps
*.switch4.eth[1].bitrate = 130Mbps
*.switch4.eth[2].bitrate = 180Mbps
*.switch4.eth[3].bitrate = 130Mbps
*.switch4.eth[4].bitrate = 130Mbps
*.host0.numApps = 2
*.host0.app[0].typename = "UdpSinkApp"
*.host0.app[0].io.localPort = 1000
*.host0.app[1].typename = "UdpSinkApp"
*.host0.app[1].io.localPort = 1001
*.host1.numApps = 37
*.host1.app[0].typename = "UdpSourceApp"
*.host1.app[0].io.destAddress = "host2"
*.host1.app[0].source.packetNameFormat = "%M-%m-%c"
*.host1.app[0].source.displayStringTextFormat = "sent %p pk (%l)"
*.host1.app[0].source.packetLength = 23B
*.host1.app[0].source.productionInterval = 100us
*.host1.app[0].display-name = "type1_0"
*.host1.app[0].io.destPort = 1000
*.host1.app[1].typename = "UdpBasicApp"
*.host1.app[1].destAddresses = "host0"
*.host1.app[1].source.packetNameFormat = "%M-%m-%c"
*.host1.app[1].source.displayStringTextFormat = "sent %p pk (%l)"
*.host1.app[1].messageLength = 18B
*.host1.app[1].sendInterval = 100us
*.host1.app[1].startTime = 1100us
*.host1.app[1].stopTime = 1900us
*.host1.app[1].display-name = "type2_0"
*.host1.app[1].destPort = 1000
*.host1.app[2].typename = "UdpBasicApp"
*.host1.app[2].destAddresses = "host0"
*.host1.app[2].source.packetNameFormat = "%M-%m-%c"
*.host1.app[2].source.displayStringTextFormat = "sent %p pk (%l)"
*.host1.app[2].messageLength = 18B
*.host1.app[2].sendInterval = 100us
*.host1.app[2].startTime = 2500us
*.host1.app[2].stopTime = 2700us
*.host1.app[2].display-name = "type2_0"
*.host1.app[2].destPort = 1000
*.host1.app[3].typename = "UdpBasicApp"
*.host1.app[3].destAddresses = "host0"
*.host1.app[3].source.packetNameFormat = "%M-%m-%c"
*.host1.app[3].source.displayStringTextFormat = "sent %p pk (%l)"
*.host1.app[3].messageLength = 18B
*.host1.app[3].sendInterval = 100us
*.host1.app[3].startTime = 2900us
*.host1.app[3].stopTime = 3000us
*.host1.app[3].display-name = "type2_0"
*.host1.app[3].destPort = 1000
*.host1.app[4].typename = "UdpBasicApp"
*.host1.app[4].destAddresses = "host0"
*.host1.app[4].source.packetNameFormat = "%M-%m-%c"
*.host1.app[4].source.displayStringTextFormat = "sent %p pk (%l)"
*.host1.app[4].messageLength = 18B
*.host1.app[4].sendInterval = 100us
*.host1.app[4].startTime = 3400us
*.host1.app[4].stopTime = 4000us
*.host1.app[4].display-name = "type2_0"
*.host1.app[4].destPort = 1000
*.host1.app[5].typename = "UdpBasicApp"
*.host1.app[5].destAddresses = "host0"
*.host1.app[5].source.packetNameFormat = "%M-%m-%c"
*.host1.app[5].source.displayStringTextFormat = "sent %p pk (%l)"
*.host1.app[5].messageLength = 18B
*.host1.app[5].sendInterval = 100us
*.host1.app[5].startTime = 6500us
*.host1.app[5].stopTime = 7100us
*.host1.app[5].display-name = "type2_0"
*.host1.app[5].destPort = 1000
*.host1.app[6].typename = "UdpBasicApp"
*.host1.app[6].destAddresses = "host0"
*.host1.app[6].source.packetNameFormat = "%M-%m-%c"
*.host1.app[6].source.displayStringTextFormat = "sent %p pk (%l)"
*.host1.app[6].messageLength = 18B
*.host1.app[6].sendInterval = 100us
*.host1.app[6].startTime = 8000us
*.host1.app[6].stopTime = 8400us
*.host1.app[6].display-name = "type2_0"
*.host1.app[6].destPort = 1000
*.host1.app[7].typename = "UdpBasicApp"
*.host1.app[7].destAddresses = "host0"
*.host1.app[7].source.packetNameFormat = "%M-%m-%c"
*.host1.app[7].source.displayStringTextFormat = "sent %p pk (%l)"
*.host1.app[7].messageLength = 18B
*.host1.app[7].sendInterval = 100us
*.host1.app[7].startTime = 9600us
*.host1.app[7].stopTime = 10000us
*.host1.app[7].display-name = "type2_0"
*.host1.app[7].destPort = 1000
*.host1.app[8].typename = "UdpSinkApp"
*.host1.app[8].io.localPort = 1000
*.host1.app[9].typename = "UdpBasicApp"
*.host1.app[9].destAddresses = "host2"
*.host1.app[9].source.packetNameFormat = "%M-%m-%c"
*.host1.app[9].source.displayStringTextFormat = "sent %p pk (%l)"
*.host1.app[9].messageLength = 16B
*.host1.app[9].sendInterval = 100us
*.host1.app[9].startTime = 500us
*.host1.app[9].stopTime = 700us
*.host1.app[9].display-name = "type2_3"
*.host1.app[9].destPort = 1001
*.host1.app[10].typename = "UdpBasicApp"
*.host1.app[10].destAddresses = "host2"
*.host1.app[10].source.packetNameFormat = "%M-%m-%c"
*.host1.app[10].source.displayStringTextFormat = "sent %p pk (%l)"
*.host1.app[10].messageLength = 16B
*.host1.app[10].sendInterval = 100us
*.host1.app[10].startTime = 800us
*.host1.app[10].stopTime = 900us
*.host1.app[10].display-name = "type2_3"
*.host1.app[10].destPort = 1001
*.host1.app[11].typename = "UdpBasicApp"
*.host1.app[11].destAddresses = "host2"
*.host1.app[11].source.packetNameFormat = "%M-%m-%c"
*.host1.app[11].source.displayStringTextFormat = "sent %p pk (%l)"
*.host1.app[11].messageLength = 16B
*.host1.app[11].sendInterval = 100us
*.host1.app[11].startTime = 1000us
*.host1.app[11].stopTime = 1400us
*.host1.app[11].display-name = "type2_3"
*.host1.app[11].destPort = 1001
*.host1.app[12].typename = "UdpBasicApp"
*.host1.app[12].destAddresses = "host2"
*.host1.app[12].source.packetNameFormat = "%M-%m-%c"
*.host1.app[12].source.displayStringTextFormat = "sent %p pk (%l)"
*.host1.app[12].messageLength = 16B
*.host1.app[12].sendInterval = 100us
*.host1.app[12].startTime = 1500us
*.host1.app[12].stopTime = 2500us
*.host1.app[12].display-name = "type2_3"
*.host1.app[12].destPort = 1001
*.host1.app[13].typename = "UdpBasicApp"
*.host1.app[13].destAddresses = "host2"
*.host1.app[13].source.packetNameFormat = "%M-%m-%c"
*.host1.app[13].source.displayStringTextFormat = "sent %p pk (%l)"
*.host1.app[13].messageLength = 16B
*.host1.app[13].sendInterval = 100us
*.host1.app[13].startTime = 2600us
*.host1.app[13].stopTime = 2900us
*.host1.app[13].display-name = "type2_3"
*.host1.app[13].destPort = 1001
*.host1.app[14].typename = "UdpBasicApp"
*.host1.app[14].destAddresses = "host2"
*.host1.app[14].source.packetNameFormat = "%M-%m-%c"
*.host1.app[14].source.displayStringTextFormat = "sent %p pk (%l)"
*.host1.app[14].messageLength = 16B
*.host1.app[14].sendInterval = 100us
*.host1.app[14].startTime = 3400us
*.host1.app[14].stopTime = 3500us
*.host1.app[14].display-name = "type2_3"
*.host1.app[14].destPort = 1001
*.host1.app[15].typename = "UdpBasicApp"
*.host1.app[15].destAddresses = "host2"
*.host1.app[15].source.packetNameFormat = "%M-%m-%c"
*.host1.app[15].source.displayStringTextFormat = "sent %p pk (%l)"
*.host1.app[15].messageLength = 16B
*.host1.app[15].sendInterval = 100us
*.host1.app[15].startTime = 3700us
*.host1.app[15].stopTime = 3900us
*.host1.app[15].display-name = "type2_3"
*.host1.app[15].destPort = 1001
*.host1.app[16].typename = "UdpBasicApp"
*.host1.app[16].destAddresses = "host2"
*.host1.app[16].source.packetNameFormat = "%M-%m-%c"
*.host1.app[16].source.displayStringTextFormat = "sent %p pk (%l)"
*.host1.app[16].messageLength = 16B
*.host1.app[16].sendInterval = 100us
*.host1.app[16].startTime = 4000us
*.host1.app[16].stopTime = 4400us
*.host1.app[16].display-name = "type2_3"
*.host1.app[16].destPort = 1001
*.host1.app[17].typename = "UdpBasicApp"
*.host1.app[17].destAddresses = "host2"
*.host1.app[17].source.packetNameFormat = "%M-%m-%c"
*.host1.app[17].source.displayStringTextFormat = "sent %p pk (%l)"
*.host1.app[17].messageLength = 16B
*.host1.app[17].sendInterval = 100us
*.host1.app[17].startTime = 4600us
*.host1.app[17].stopTime = 5000us
*.host1.app[17].display-name = "type2_3"
*.host1.app[17].destPort = 1001
*.host1.app[18].typename = "UdpBasicApp"
*.host1.app[18].destAddresses = "host2"
*.host1.app[18].source.packetNameFormat = "%M-%m-%c"
*.host1.app[18].source.displayStringTextFormat = "sent %p pk (%l)"
*.host1.app[18].messageLength = 16B
*.host1.app[18].sendInterval = 100us
*.host1.app[18].startTime = 5500us
*.host1.app[18].stopTime = 5800us
*.host1.app[18].display-name = "type2_3"
*.host1.app[18].destPort = 1001
*.host1.app[19].typename = "UdpBasicApp"
*.host1.app[19].destAddresses = "host2"
*.host1.app[19].source.packetNameFormat = "%M-%m-%c"
*.host1.app[19].source.displayStringTextFormat = "sent %p pk (%l)"
*.host1.app[19].messageLength = 16B
*.host1.app[19].sendInterval = 100us
*.host1.app[19].startTime = 6400us
*.host1.app[19].stopTime = 6900us
*.host1.app[19].display-name = "type2_3"
*.host1.app[19].destPort = 1001
*.host1.app[20].typename = "UdpBasicApp"
*.host1.app[20].destAddresses = "host2"
*.host1.app[20].source.packetNameFormat = "%M-%m-%c"
*.host1.app[20].source.displayStringTextFormat = "sent %p pk (%l)"
*.host1.app[20].messageLength = 16B
*.host1.app[20].sendInterval = 100us
*.host1.app[20].startTime = 7300us
*.host1.app[20].stopTime = 7700us
*.host1.app[20].display-name = "type2_3"
*.host1.app[20].destPort = 1001
*.host1.app[21].typename = "UdpBasicApp"
*.host1.app[21].destAddresses = "host2"
*.host1.app[21].source.packetNameFormat = "%M-%m-%c"
*.host1.app[21].source.displayStringTextFormat = "sent %p pk (%l)"
*.host1.app[21].messageLength = 16B
*.host1.app[21].sendInterval = 100us
*.host1.app[21].startTime = 8000us
*.host1.app[21].stopTime = 8400us
*.host1.app[21].display-name = "type2_3"
*.host1.app[21].destPort = 1001
*.host1.app[22].typename = "UdpBasicApp"
*.host1.app[22].destAddresses = "host2"
*.host1.app[22].source.packetNameFormat = "%M-%m-%c"
*.host1.app[22].source.displayStringTextFormat = "sent %p pk (%l)"
*.host1.app[22].messageLength = 16B
*.host1.app[22].sendInterval = 100us
*.host1.app[22].startTime = 8500us
*.host1.app[22].stopTime = 9100us
*.host1.app[22].display-name = "type2_3"
*.host1.app[22].destPort = 1001
*.host1.app[23].typename = "UdpBasicApp"
*.host1.app[23].destAddresses = "host2"
*.host1.app[23].source.packetNameFormat = "%M-%m-%c"
*.host1.app[23].source.displayStringTextFormat = "sent %p pk (%l)"
*.host1.app[23].messageLength = 16B
*.host1.app[23].sendInterval = 100us
*.host1.app[23].startTime = 9900us
*.host1.app[23].stopTime = 10000us
*.host1.app[23].display-name = "type2_3"
*.host1.app[23].destPort = 1001
*.host1.app[24].typename = "UdpBasicApp"
*.host1.app[24].destAddresses = "host2"
*.host1.app[24].source.packetNameFormat = "%M-%m-%c"
*.host1.app[24].source.displayStringTextFormat = "sent %p pk (%l)"
*.host1.app[24].messageLength = 22B
*.host1.app[24].sendInterval = 100us
*.host1.app[24].startTime = 200us
*.host1.app[24].stopTime = 300us
*.host1.app[24].display-name = "type2_4"
*.host1.app[24].destPort = 1002
*.host1.app[25].typename = "UdpBasicApp"
*.host1.app[25].destAddresses = "host2"
*.host1.app[25].source.packetNameFormat = "%M-%m-%c"
*.host1.app[25].source.displayStringTextFormat = "sent %p pk (%l)"
*.host1.app[25].messageLength = 22B
*.host1.app[25].sendInterval = 100us
*.host1.app[25].startTime = 400us
*.host1.app[25].stopTime = 700us
*.host1.app[25].display-name = "type2_4"
*.host1.app[25].destPort = 1002
*.host1.app[26].typename = "UdpBasicApp"
*.host1.app[26].destAddresses = "host2"
*.host1.app[26].source.packetNameFormat = "%M-%m-%c"
*.host1.app[26].source.displayStringTextFormat = "sent %p pk (%l)"
*.host1.app[26].messageLength = 22B
*.host1.app[26].sendInterval = 100us
*.host1.app[26].startTime = 1000us
*.host1.app[26].stopTime = 1200us
*.host1.app[26].display-name = "type2_4"
*.host1.app[26].destPort = 1002
*.host1.app[27].typename = "UdpBasicApp"
*.host1.app[27].destAddresses = "host2"
*.host1.app[27].source.packetNameFormat = "%M-%m-%c"
*.host1.app[27].source.displayStringTextFormat = "sent %p pk (%l)"
*.host1.app[27].messageLength = 22B
*.host1.app[27].sendInterval = 100us
*.host1.app[27].startTime = 1400us
*.host1.app[27].stopTime = 1600us
*.host1.app[27].display-name = "type2_4"
*.host1.app[27].destPort = 1002
*.host1.app[28].typename = "UdpBasicApp"
*.host1.app[28].destAddresses = "host2"
*.host1.app[28].source.packetNameFormat = "%M-%m-%c"
*.host1.app[28].source.displayStringTextFormat = "sent %p pk (%l)"
*.host1.app[28].messageLength = 22B
*.host1.app[28].sendInterval = 100us
*.host1.app[28].startTime = 3000us
*.host1.app[28].stopTime = 3300us
*.host1.app[28].display-name = "type2_4"
*.host1.app[28].destPort = 1002
*.host1.app[29].typename = "UdpBasicApp"
*.host1.app[29].destAddresses = "host2"
*.host1.app[29].source.packetNameFormat = "%M-%m-%c"
*.host1.app[29].source.displayStringTextFormat = "sent %p pk (%l)"
*.host1.app[29].messageLength = 22B
*.host1.app[29].sendInterval = 100us
*.host1.app[29].startTime = 3600us
*.host1.app[29].stopTime = 3900us
*.host1.app[29].display-name = "type2_4"
*.host1.app[29].destPort = 1002
*.host1.app[30].typename = "UdpBasicApp"
*.host1.app[30].destAddresses = "host2"
*.host1.app[30].source.packetNameFormat = "%M-%m-%c"
*.host1.app[30].source.displayStringTextFormat = "sent %p pk (%l)"
*.host1.app[30].messageLength = 22B
*.host1.app[30].sendInterval = 100us
*.host1.app[30].startTime = 4400us
*.host1.app[30].stopTime = 4700us
*.host1.app[30].display-name = "type2_4"
*.host1.app[30].destPort = 1002
*.host1.app[31].typename = "UdpBasicApp"
*.host1.app[31].destAddresses = "host2"
*.host1.app[31].source.packetNameFormat = "%M-%m-%c"
*.host1.app[31].source.displayStringTextFormat = "sent %p pk (%l)"
*.host1.app[31].messageLength = 22B
*.host1.app[31].sendInterval = 100us
*.host1.app[31].startTime = 5000us
*.host1.app[31].stopTime = 5100us
*.host1.app[31].display-name = "type2_4"
*.host1.app[31].destPort = 1002
*.host1.app[32].typename = "UdpBasicApp"
*.host1.app[32].destAddresses = "host2"
*.host1.app[32].source.packetNameFormat = "%M-%m-%c"
*.host1.app[32].source.displayStringTextFormat = "sent %p pk (%l)"
*.host1.app[32].messageLength = 22B
*.host1.app[32].sendInterval = 100us
*.host1.app[32].startTime = 5900us
*.host1.app[32].stopTime = 6300us
*.host1.app[32].display-name = "type2_4"
*.host1.app[32].destPort = 1002
*.host1.app[33].typename = "UdpBasicApp"
*.host1.app[33].destAddresses = "host2"
*.host1.app[33].source.packetNameFormat = "%M-%m-%c"
*.host1.app[33].source.displayStringTextFormat = "sent %p pk (%l)"
*.host1.app[33].messageLength = 22B
*.host1.app[33].sendInterval = 100us
*.host1.app[33].startTime = 6600us
*.host1.app[33].stopTime = 6700us
*.host1.app[33].display-name = "type2_4"
*.host1.app[33].destPort = 1002
*.host1.app[34].typename = "UdpBasicApp"
*.host1.app[34].destAddresses = "host2"
*.host1.app[34].source.packetNameFormat = "%M-%m-%c"
*.host1.app[34].source.displayStringTextFormat = "sent %p pk (%l)"
*.host1.app[34].messageLength = 22B
*.host1.app[34].sendInterval = 100us
*.host1.app[34].startTime = 7400us
*.host1.app[34].stopTime = 7600us
*.host1.app[34].display-name = "type2_4"
*.host1.app[34].destPort = 1002
*.host1.app[35].typename = "UdpBasicApp"
*.host1.app[35].destAddresses = "host2"
*.host1.app[35].source.packetNameFormat = "%M-%m-%c"
*.host1.app[35].source.displayStringTextFormat = "sent %p pk (%l)"
*.host1.app[35].messageLength = 22B
*.host1.app[35].sendInterval = 100us
*.host1.app[35].startTime = 7800us
*.host1.app[35].stopTime = 8300us
*.host1.app[35].display-name = "type2_4"
*.host1.app[35].destPort = 1002
*.host1.app[36].typename = "UdpBasicApp"
*.host1.app[36].destAddresses = "host2"
*.host1.app[36].source.packetNameFormat = "%M-%m-%c"
*.host1.app[36].source.displayStringTextFormat = "sent %p pk (%l)"
*.host1.app[36].messageLength = 22B
*.host1.app[36].sendInterval = 100us
*.host1.app[36].startTime = 9000us
*.host1.app[36].stopTime = 10000us
*.host1.app[36].display-name = "type2_4"
*.host1.app[36].destPort = 1002
*.host2.numApps = 4
*.host2.app[0].typename = "UdpSinkApp"
*.host2.app[0].io.localPort = 1000
*.host2.app[1].typename = "UdpSourceApp"
*.host2.app[1].io.destAddress = "host3"
*.host2.app[1].source.packetNameFormat = "%M-%m-%c"
*.host2.app[1].source.displayStringTextFormat = "sent %p pk (%l)"
*.host2.app[1].source.packetLength = 18B
*.host2.app[1].source.productionInterval = 100us
*.host2.app[1].display-name = "type1_1"
*.host2.app[1].io.destPort = 1000
*.host2.app[2].typename = "UdpSinkApp"
*.host2.app[2].io.localPort = 1001
*.host2.app[3].typename = "UdpSinkApp"
*.host2.app[3].io.localPort = 1002
*.host3.numApps = 42
*.host3.app[0].typename = "UdpSinkApp"
*.host3.app[0].io.localPort = 1000
*.host3.app[1].typename = "UdpBasicApp"
*.host3.app[1].destAddresses = "host1"
*.host3.app[1].source.packetNameFormat = "%M-%m-%c"
*.host3.app[1].source.displayStringTextFormat = "sent %p pk (%l)"
*.host3.app[1].messageLength = 15B
*.host3.app[1].sendInterval = 100us
*.host3.app[1].startTime = 200us
*.host3.app[1].stopTime = 400us
*.host3.app[1].display-name = "type2_1"
*.host3.app[1].destPort = 1000
*.host3.app[2].typename = "UdpBasicApp"
*.host3.app[2].destAddresses = "host1"
*.host3.app[2].source.packetNameFormat = "%M-%m-%c"
*.host3.app[2].source.displayStringTextFormat = "sent %p pk (%l)"
*.host3.app[2].messageLength = 15B
*.host3.app[2].sendInterval = 100us
*.host3.app[2].startTime = 500us
*.host3.app[2].stopTime = 800us
*.host3.app[2].display-name = "type2_1"
*.host3.app[2].destPort = 1000
*.host3.app[3].typename = "UdpBasicApp"
*.host3.app[3].destAddresses = "host1"
*.host3.app[3].source.packetNameFormat = "%M-%m-%c"
*.host3.app[3].source.displayStringTextFormat = "sent %p pk (%l)"
*.host3.app[3].messageLength = 15B
*.host3.app[3].sendInterval = 100us
*.host3.app[3].startTime = 1000us
*.host3.app[3].stopTime = 1200us
*.host3.app[3].display-name = "type2_1"
*.host3.app[3].destPort = 1000
*.host3.app[4].typename = "UdpBasicApp"
*.host3.app[4].destAddresses = "host1"
*.host3.app[4].source.packetNameFormat = "%M-%m-%c"
*.host3.app[4].source.displayStringTextFormat = "sent %p pk (%l)"
*.host3.app[4].messageLength = 15B
*.host3.app[4].sendInterval = 100us
*.host3.app[4].startTime = 1300us
*.host3.app[4].stopTime = 1400us
*.host3.app[4].display-name = "type2_1"
*.host3.app[4].destPort = 1000
*.host3.app[5].typename = "UdpBasicApp"
*.host3.app[5].destAddresses = "host1"
*.host3.app[5].source.packetNameFormat = "%M-%m-%c"
*.host3.app[5].source.displayStringTextFormat = "sent %p pk (%l)"
*.host3.app[5].messageLength = 15B
*.host3.app[5].sendInterval = 100us
*.host3.app[5].startTime = 1500us
*.host3.app[5].stopTime = 1600us
*.host3.app[5].display-name = "type2_1"
*.host3.app[5].destPort = 1000
*.host3.app[6].typename = "UdpBasicApp"
*.host3.app[6].destAddresses = "host1"
*.host3.app[6].source.packetNameFormat = "%M-%m-%c"
*.host3.app[6].source.displayStringTextFormat = "sent %p pk (%l)"
*.host3.app[6].messageLength = 15B
*.host3.app[6].sendInterval = 100us
*.host3.app[6].startTime = 1800us
*.host3.app[6].stopTime = 2000us
*.host3.app[6].display-name = "type2_1"
*.host3.app[6].destPort = 1000
*.host3.app[7].typename = "UdpBasicApp"
*.host3.app[7].destAddresses = "host1"
*.host3.app[7].source.packetNameFormat = "%M-%m-%c"
*.host3.app[7].source.displayStringTextFormat = "sent %p pk (%l)"
*.host3.app[7].messageLength = 15B
*.host3.app[7].sendInterval = 100us
*.host3.app[7].startTime = 2700us
*.host3.app[7].stopTime = 2800us
*.host3.app[7].display-name = "type2_1"
*.host3.app[7].destPort = 1000
*.host3.app[8].typename = "UdpBasicApp"
*.host3.app[8].destAddresses = "host1"
*.host3.app[8].source.packetNameFormat = "%M-%m-%c"
*.host3.app[8].source.displayStringTextFormat = "sent %p pk (%l)"
*.host3.app[8].messageLength = 15B
*.host3.app[8].sendInterval = 100us
*.host3.app[8].startTime = 3100us
*.host3.app[8].stopTime = 3200us
*.host3.app[8].display-name = "type2_1"
*.host3.app[8].destPort = 1000
*.host3.app[9].typename = "UdpBasicApp"
*.host3.app[9].destAddresses = "host1"
*.host3.app[9].source.packetNameFormat = "%M-%m-%c"
*.host3.app[9].source.displayStringTextFormat = "sent %p pk (%l)"
*.host3.app[9].messageLength = 15B
*.host3.app[9].sendInterval = 100us
*.host3.app[9].startTime = 3500us
*.host3.app[9].stopTime = 3600us
*.host3.app[9].display-name = "type2_1"
*.host3.app[9].destPort = 1000
*.host3.app[10].typename = "UdpBasicApp"
*.host3.app[10].destAddresses = "host1"
*.host3.app[10].source.packetNameFormat = "%M-%m-%c"
*.host3.app[10].source.displayStringTextFormat = "sent %p pk (%l)"
*.host3.app[10].messageLength = 15B
*.host3.app[10].sendInterval = 100us
*.host3.app[10].startTime = 3900us
*.host3.app[10].stopTime = 4100us
*.host3.app[10].display-name = "type2_1"
*.host3.app[10].destPort = 1000
*.host3.app[11].typename = "UdpBasicApp"
*.host3.app[11].destAddresses = "host1"
*.host3.app[11].source.packetNameFormat = "%M-%m-%c"
*.host3.app[11].source.displayStringTextFormat = "sent %p pk (%l)"
*.host3.app[11].messageLength = 15B
*.host3.app[11].sendInterval = 100us
*.host3.app[11].startTime = 4200us
*.host3.app[11].stopTime = 4600us
*.host3.app[11].display-name = "type2_1"
*.host3.app[11].destPort = 1000
*.host3.app[12].typename = "UdpBasicApp"
*.host3.app[12].destAddresses = "host1"
*.host3.app[12].source.packetNameFormat = "%M-%m-%c"
*.host3.app[12].source.displayStringTextFormat = "sent %p pk (%l)"
*.host3.app[12].messageLength = 15B
*.host3.app[12].sendInterval = 100us
*.host3.app[12].startTime = 4700us
*.host3.app[12].stopTime = 4900us
*.host3.app[12].display-name = "type2_1"
*.host3.app[12].destPort = 1000
*.host3.app[13].typename = "UdpBasicApp"
*.host3.app[13].destAddresses = "host1"
*.host3.app[13].source.packetNameFormat = "%M-%m-%c"
*.host3.app[13].source.displayStringTextFormat = "sent %p pk (%l)"
*.host3.app[13].messageLength = 15B
*.host3.app[13].sendInterval = 100us
*.host3.app[13].startTime = 5000us
*.host3.app[13].stopTime = 5100us
*.host3.app[13].display-name = "type2_1"
*.host3.app[13].destPort = 1000
*.host3.app[14].typename = "UdpBasicApp"
*.host3.app[14].destAddresses = "host1"
*.host3.app[14].source.packetNameFormat = "%M-%m-%c"
*.host3.app[14].source.displayStringTextFormat = "sent %p pk (%l)"
*.host3.app[14].messageLength = 15B
*.host3.app[14].sendInterval = 100us
*.host3.app[14].startTime = 5300us
*.host3.app[14].stopTime = 5600us
*.host3.app[14].display-name = "type2_1"
*.host3.app[14].destPort = 1000
*.host3.app[15].typename = "UdpBasicApp"
*.host3.app[15].destAddresses = "host1"
*.host3.app[15].source.packetNameFormat = "%M-%m-%c"
*.host3.app[15].source.displayStringTextFormat = "sent %p pk (%l)"
*.host3.app[15].messageLength = 15B
*.host3.app[15].sendInterval = 100us
*.host3.app[15].startTime = 5700us
*.host3.app[15].stopTime = 5800us
*.host3.app[15].display-name = "type2_1"
*.host3.app[15].destPort = 1000
*.host3.app[16].typename = "UdpBasicApp"
*.host3.app[16].destAddresses = "host1"
*.host3.app[16].source.packetNameFormat = "%M-%m-%c"
*.host3.app[16].source.displayStringTextFormat = "sent %p pk (%l)"
*.host3.app[16].messageLength = 15B
*.host3.app[16].sendInterval = 100us
*.host3.app[16].startTime = 6100us
*.host3.app[16].stopTime = 6300us
*.host3.app[16].display-name = "type2_1"
*.host3.app[16].destPort = 1000
*.host3.app[17].typename = "UdpBasicApp"
*.host3.app[17].destAddresses = "host1"
*.host3.app[17].source.packetNameFormat = "%M-%m-%c"
*.host3.app[17].source.displayStringTextFormat = "sent %p pk (%l)"
*.host3.app[17].messageLength = 15B
*.host3.app[17].sendInterval = 100us
*.host3.app[17].startTime = 6400us
*.host3.app[17].stopTime = 6800us
*.host3.app[17].display-name = "type2_1"
*.host3.app[17].destPort = 1000
*.host3.app[18].typename = "UdpBasicApp"
*.host3.app[18].destAddresses = "host1"
*.host3.app[18].source.packetNameFormat = "%M-%m-%c"
*.host3.app[18].source.displayStringTextFormat = "sent %p pk (%l)"
*.host3.app[18].messageLength = 15B
*.host3.app[18].sendInterval = 100us
*.host3.app[18].startTime = 6900us
*.host3.app[18].stopTime = 7000us
*.host3.app[18].display-name = "type2_1"
*.host3.app[18].destPort = 1000
*.host3.app[19].typename = "UdpBasicApp"
*.host3.app[19].destAddresses = "host1"
*.host3.app[19].source.packetNameFormat = "%M-%m-%c"
*.host3.app[19].source.displayStringTextFormat = "sent %p pk (%l)"
*.host3.app[19].messageLength = 15B
*.host3.app[19].sendInterval = 100us
*.host3.app[19].startTime = 7100us
*.host3.app[19].stopTime = 7300us
*.host3.app[19].display-name = "type2_1"
*.host3.app[19].destPort = 1000
*.host3.app[20].typename = "UdpBasicApp"
*.host3.app[20].destAddresses = "host1"
*.host3.app[20].source.packetNameFormat = "%M-%m-%c"
*.host3.app[20].source.displayStringTextFormat = "sent %p pk (%l)"
*.host3.app[20].messageLength = 15B
*.host3.app[20].sendInterval = 100us
*.host3.app[20].startTime = 7400us
*.host3.app[20].stopTime = 7800us
*.host3.app[20].display-name = "type2_1"
*.host3.app[20].destPort = 1000
*.host3.app[21].typename = "UdpBasicApp"
*.host3.app[21].destAddresses = "host1"
*.host3.app[21].source.packetNameFormat = "%M-%m-%c"
*.host3.app[21].source.displayStringTextFormat = "sent %p pk (%l)"
*.host3.app[21].messageLength = 15B
*.host3.app[21].sendInterval = 100us
*.host3.app[21].startTime = 7900us
*.host3.app[21].stopTime = 8400us
*.host3.app[21].display-name = "type2_1"
*.host3.app[21].destPort = 1000
*.host3.app[22].typename = "UdpBasicApp"
*.host3.app[22].destAddresses = "host1"
*.host3.app[22].source.packetNameFormat = "%M-%m-%c"
*.host3.app[22].source.displayStringTextFormat = "sent %p pk (%l)"
*.host3.app[22].messageLength = 15B
*.host3.app[22].sendInterval = 100us
*.host3.app[22].startTime = 8600us
*.host3.app[22].stopTime = 8700us
*.host3.app[22].display-name = "type2_1"
*.host3.app[22].destPort = 1000
*.host3.app[23].typename = "UdpBasicApp"
*.host3.app[23].destAddresses = "host1"
*.host3.app[23].source.packetNameFormat = "%M-%m-%c"
*.host3.app[23].source.displayStringTextFormat = "sent %p pk (%l)"
*.host3.app[23].messageLength = 15B
*.host3.app[23].sendInterval = 100us
*.host3.app[23].startTime = 8800us
*.host3.app[23].stopTime = 8900us
*.host3.app[23].display-name = "type2_1"
*.host3.app[23].destPort = 1000
*.host3.app[24].typename = "UdpBasicApp"
*.host3.app[24].destAddresses = "host1"
*.host3.app[24].source.packetNameFormat = "%M-%m-%c"
*.host3.app[24].source.displayStringTextFormat = "sent %p pk (%l)"
*.host3.app[24].messageLength = 15B
*.host3.app[24].sendInterval = 100us
*.host3.app[24].startTime = 9100us
*.host3.app[24].stopTime = 9200us
*.host3.app[24].display-name = "type2_1"
*.host3.app[24].destPort = 1000
*.host3.app[25].typename = "UdpBasicApp"
*.host3.app[25].destAddresses = "host1"
*.host3.app[25].source.packetNameFormat = "%M-%m-%c"
*.host3.app[25].source.displayStringTextFormat = "sent %p pk (%l)"
*.host3.app[25].messageLength = 15B
*.host3.app[25].sendInterval = 100us
*.host3.app[25].startTime = 9400us
*.host3.app[25].stopTime = 9600us
*.host3.app[25].display-name = "type2_1"
*.host3.app[25].destPort = 1000
*.host3.app[26].typename = "UdpBasicApp"
*.host3.app[26].destAddresses = "host1"
*.host3.app[26].source.packetNameFormat = "%M-%m-%c"
*.host3.app[26].source.displayStringTextFormat = "sent %p pk (%l)"
*.host3.app[26].messageLength = 15B
*.host3.app[26].sendInterval = 100us
*.host3.app[26].startTime = 9800us
*.host3.app[26].stopTime = 10000us
*.host3.app[26].display-name = "type2_1"
*.host3.app[26].destPort = 1000
*.host3.app[27].typename = "UdpBasicApp"
*.host3.app[27].destAddresses = "host0"
*.host3.app[27].source.packetNameFormat = "%M-%m-%c"
*.host3.app[27].source.displayStringTextFormat = "sent %p pk (%l)"
*.host3.app[27].messageLength = 21B
*.host3.app[27].sendInterval = 100us
*.host3.app[27].startTime = 200us
*.host3.app[27].stopTime = 400us
*.host3.app[27].display-name = "type2_2"
*.host3.app[27].destPort = 1001
*.host3.app[28].typename = "UdpBasicApp"
*.host3.app[28].destAddresses = "host0"
*.host3.app[28].source.packetNameFormat = "%M-%m-%c"
*.host3.app[28].source.displayStringTextFormat = "sent %p pk (%l)"
*.host3.app[28].messageLength = 21B
*.host3.app[28].sendInterval = 100us
*.host3.app[28].startTime = 500us
*.host3.app[28].stopTime = 900us
*.host3.app[28].display-name = "type2_2"
*.host3.app[28].destPort = 1001
*.host3.app[29].typename = "UdpBasicApp"
*.host3.app[29].destAddresses = "host0"
*.host3.app[29].source.packetNameFormat = "%M-%m-%c"
*.host3.app[29].source.displayStringTextFormat = "sent %p pk (%l)"
*.host3.app[29].messageLength = 21B
*.host3.app[29].sendInterval = 100us
*.host3.app[29].startTime = 1100us
*.host3.app[29].stopTime = 1500us
*.host3.app[29].display-name = "type2_2"
*.host3.app[29].destPort = 1001
*.host3.app[30].typename = "UdpBasicApp"
*.host3.app[30].destAddresses = "host0"
*.host3.app[30].source.packetNameFormat = "%M-%m-%c"
*.host3.app[30].source.displayStringTextFormat = "sent %p pk (%l)"
*.host3.app[30].messageLength = 21B
*.host3.app[30].sendInterval = 100us
*.host3.app[30].startTime = 2000us
*.host3.app[30].stopTime = 2400us
*.host3.app[30].display-name = "type2_2"
*.host3.app[30].destPort = 1001
*.host3.app[31].typename = "UdpBasicApp"
*.host3.app[31].destAddresses = "host0"
*.host3.app[31].source.packetNameFormat = "%M-%m-%c"
*.host3.app[31].source.displayStringTextFormat = "sent %p pk (%l)"
*.host3.app[31].messageLength = 21B
*.host3.app[31].sendInterval = 100us
*.host3.app[31].startTime = 2600us
*.host3.app[31].stopTime = 3000us
*.host3.app[31].display-name = "type2_2"
*.host3.app[31].destPort = 1001
*.host3.app[32].typename = "UdpBasicApp"