[General]
network = TSN_multipath
sim-time-limit = 10ms
*.macForwardingTableConfigurator.typename = ""
*.*.hasStreamRedundancy = true
*.*.bridging.streamRelay.typename = "StreamRelayLayer"
*.*.bridging.streamCoder.typename = "StreamCoderLayer"
*.streamRedundancyConfigurator.typename = "StreamRedundancyConfigurator"
*.host0.eth[0].bitrate = 100Mbps
*.switch0.eth[0].bitrate = 100Mbps
*.switch0.eth[1].bitrate = 150Mbps
*.switch0.eth[2].bitrate = 220Mbps
*.switch0.eth[3].bitrate = 130Mbps
*.switch0.eth[4].bitrate = 190Mbps
*.host1.eth[0].bitrate = 100Mbps
*.switch1.eth[0].bitrate = 100Mbps
*.switch1.eth[1].bitrate = 160Mbps
*.switch1.eth[2].bitrate = 180Mbps
*.switch1.eth[3].bitrate = 190Mbps
*.host2.eth[0].bitrate = 100Mbps
*.switch2.eth[0].bitrate = 100Mbps
*.switch2.eth[1].bitrate = 150Mbps
*.switch2.eth[2].bitrate = 160Mbps
*.switch2.eth[3].bitrate = 190Mbps
*.switch2.eth[4].bitrate = 190Mbps
*.switch2.eth[5].bitrate = 180Mbps
*.switch2.eth[6].bitrate = 130Mbps
*.host3.eth[0].bitrate = 100Mbps
*.switch3.eth[0].bitrate = 100Mbps
*.switch3.eth[1].bitrate = 220Mbps
*.switch3.eth[2].bitrate = 180Mbps
*.switch3.eth[3].bitrate = 130Mbps
*.host4.eth[0].bitrate = 100Mbps
*.switch4.eth[0].bitrate = 100Mbps
*.switch4.eth[1].bitrate = 130Mbps
*.switch4.eth[2].bitrate = 180Mbps
*.switch4.eth[3].bitrate = 130Mbps
*.switch4.eth[4].bitrate = 130Mbps
*.host1.numApps = 1
*.host1.app[0].typename = "UdpSourceApp"
*.host1.app[0].io.destAddress = "host0"
*.host1.app[0].source.packetNameFormat = "%M-%m-%c"
*.host1.app[0].source.displayStringTextFormat = "sent %p pk (%l)"
*.host1.app[0].source.packetLength = 18B
*.host1.app[0].source.productionInterval = 100us
*.host1.app[0].display-name = "type2_0"
*.host1.app[0].io.destPort = 1000
*.host0.numApps = 1
*.host0.app[0].typename = "UdpSinkApp"
*.host0.app[0].io.localPort = 1000
*.streamRedundancyConfigurator.configuration = [
	{
		name: "shortest_path",
		packetFilter: "*-type2_0-*",
		source: "host1",
		destination: "host0",
		trees: [[["host1", "switch1", "switch2", "switch0", "host0"]]]
	}]
	

