[General]
network = TSN_multipath
sim-time-limit = 100ms
*.macForwardingTableConfigurator.typename = ""
*.*.hasStreamRedundancy = true
*.*.bridging.streamRelay.typename = "StreamRelayLayer"
*.*.bridging.streamCoder.typename = "StreamCoderLayer"
*.streamRedundancyConfigurator.typename = "StreamRedundancyConfigurator"
*.host0.eth[0].bitrate = 1000Mbps
*.switch0.eth[0].bitrate = 1000Mbps
*.switch0.eth[1].bitrate = 2000Mbps
*.switch0.eth[2].bitrate = 2200Mbps
*.switch0.eth[3].bitrate = 1400Mbps
*.switch0.eth[4].bitrate = 1700Mbps
*.switch0.eth[5].bitrate = 1300Mbps
*.switch0.eth[6].bitrate = 1700Mbps
*.switch0.eth[7].bitrate = 1900Mbps
*.switch0.eth[8].bitrate = 1700Mbps
*.switch0.eth[9].bitrate = 1700Mbps
*.switch0.eth[10].bitrate = 1900Mbps
*.switch0.eth[11].bitrate = 2100Mbps
*.switch0.eth[12].bitrate = 2000Mbps
*.host1.eth[0].bitrate = 1000Mbps
*.switch1.eth[0].bitrate = 1000Mbps
*.switch1.eth[1].bitrate = 1900Mbps
*.switch1.eth[2].bitrate = 1900Mbps
*.switch1.eth[3].bitrate = 2100Mbps
*.switch1.eth[4].bitrate = 2400Mbps
*.switch1.eth[5].bitrate = 2400Mbps
*.switch1.eth[6].bitrate = 2200Mbps
*.switch1.eth[7].bitrate = 1700Mbps
*.switch1.eth[8].bitrate = 2000Mbps
*.switch1.eth[9].bitrate = 1600Mbps
*.switch1.eth[10].bitrate = 2100Mbps
*.switch1.eth[11].bitrate = 2200Mbps
*.switch1.eth[12].bitrate = 2400Mbps
*.switch1.eth[13].bitrate = 2400Mbps
*.switch1.eth[14].bitrate = 2100Mbps
*.switch1.eth[15].bitrate = 1700Mbps
*.switch1.eth[16].bitrate = 1500Mbps
*.host2.eth[0].bitrate = 1000Mbps
*.switch2.eth[0].bitrate = 1000Mbps
*.switch2.eth[1].bitrate = 1900Mbps
*.switch2.eth[2].bitrate = 2100Mbps
*.switch2.eth[3].bitrate = 1200Mbps
*.switch2.eth[4].bitrate = 1600Mbps
*.switch2.eth[5].bitrate = 1600Mbps
*.switch2.eth[6].bitrate = 2100Mbps
*.switch2.eth[7].bitrate = 2200Mbps
*.switch2.eth[8].bitrate = 2200Mbps
*.switch2.eth[9].bitrate = 1700Mbps
*.switch2.eth[10].bitrate = 1200Mbps
*.switch2.eth[11].bitrate = 1700Mbps
*.switch2.eth[12].bitrate = 1700Mbps
*.switch2.eth[13].bitrate = 1500Mbps
*.host3.eth[0].bitrate = 1000Mbps
*.switch3.eth[0].bitrate = 1000Mbps
*.switch3.eth[1].bitrate = 2100Mbps
*.switch3.eth[2].bitrate = 1200Mbps
*.switch3.eth[3].bitrate = 1700Mbps
*.switch3.eth[4].bitrate = 2200Mbps
*.switch3.eth[5].bitrate = 1300Mbps
*.switch3.eth[6].bitrate = 1600Mbps
*.switch3.eth[7].bitrate = 2000Mbps
*.switch3.eth[8].bitrate = 1400Mbps
*.switch3.eth[9].bitrate = 1500Mbps
*.switch3.eth[10].bitrate = 1700Mbps
*.switch3.eth[11].bitrate = 1600Mbps
*.switch3.eth[12].bitrate = 1500Mbps
*.switch3.eth[13].bitrate = 2000Mbps
*.switch3.eth[14].bitrate = 1700Mbps
*.host4.eth[0].bitrate = 1000Mbps
*.switch4.eth[0].bitrate = 1000Mbps
*.switch4.eth[1].bitrate = 2000Mbps
*.switch4.eth[2].bitrate = 2400Mbps
*.switch4.eth[3].bitrate = 1700Mbps
*.switch4.eth[4].bitrate = 1200Mbps
*.switch4.eth[5].bitrate = 1400Mbps
*.switch4.eth[6].bitrate = 1500Mbps
*.switch4.eth[7].bitrate = 1200Mbps
*.switch4.eth[8].bitrate = 1600Mbps
*.switch4.eth[9].bitrate = 1700Mbps
*.switch4.eth[10].bitrate = 1500Mbps
*.switch4.eth[11].bitrate = 1800Mbps
*.switch4.eth[12].bitrate = 2400Mbps
*.host5.eth[0].bitrate = 1000Mbps
*.switch5.eth[0].bitrate = 1000Mbps
*.switch5.eth[1].bitrate = 1600Mbps
*.switch5.eth[2].bitrate = 1800Mbps
*.switch5.eth[3].bitrate = 2200Mbps
*.switch5.eth[4].bitrate = 1800Mbps
*.switch5.eth[5].bitrate = 1700Mbps
*.switch5.eth[6].bitrate = 2200Mbps
*.switch5.eth[7].bitrate = 1800Mbps
*.switch5.eth[8].bitrate = 1500Mbps
*.switch5.eth[9].bitrate = 1600Mbps
*.host6.eth[0].bitrate = 1000Mbps
*.switch6.eth[0].bitrate = 1000Mbps
*.switch6.eth[1].bitrate = 2200Mbps
*.switch6.eth[2].bitrate = 2400Mbps
*.switch6.eth[3].bitrate = 2200Mbps
*.switch6.eth[4].bitrate = 1700Mbps
*.switch6.eth[5].bitrate = 1600Mbps
*.switch6.eth[6].bitrate = 1500Mbps
*.switch6.eth[7].bitrate = 1700Mbps
*.switch6.eth[8].bitrate = 1400Mbps
*.switch6.eth[9].bitrate = 2300Mbps
*.switch6.eth[10].bitrate = 2200Mbps
*.switch6.eth[11].bitrate = 2200Mbps
*.switch6.eth[12].bitrate = 1300Mbps
*.switch6.eth[13].bitrate = 1800Mbps
*.switch6.eth[14].bitrate = 1900Mbps
*.switch6.eth[15].bitrate = 1700Mbps
*.switch6.eth[16].bitrate = 1300Mbps
*.switch6.eth[17].bitrate = 2000Mbps
*.switch6.eth[18].bitrate = 1400Mbps
*.host7.eth[0].bitrate = 1000Mbps
*.switch7.eth[0].bitrate = 1000Mbps
*.switch7.eth[1].bitrate = 1400Mbps
*.switch7.eth[2].bitrate = 2200Mbps
*.switch7.eth[3].bitrate = 1300Mbps
*.switch7.eth[4].bitrate = 1700Mbps
*.switch7.eth[5].bitrate = 1700Mbps
*.switch7.eth[6].bitrate = 2400Mbps
*.switch7.eth[7].bitrate = 1200Mbps
*.switch7.eth[8].bitrate = 2200Mbps
*.switch7.eth[9].bitrate = 1800Mbps
*.switch7.eth[10].bitrate = 2100Mbps
*.switch7.eth[11].bitrate = 1300Mbps
*.switch7.eth[12].bitrate = 2200Mbps
*.host8.eth[0].bitrate = 1000Mbps
*.switch8.eth[0].bitrate = 1000Mbps
*.switch8.eth[1].bitrate = 1700Mbps
*.switch8.eth[2].bitrate = 1600Mbps
*.switch8.eth[3].bitrate = 1400Mbps
*.switch8.eth[4].bitrate = 1200Mbps
*.switch8.eth[5].bitrate = 1600Mbps
*.switch8.eth[6].bitrate = 1700Mbps
*.switch8.eth[7].bitrate = 2400Mbps
*.switch8.eth[8].bitrate = 1200Mbps
*.switch8.eth[9].bitrate = 1300Mbps
*.switch8.eth[10].bitrate = 1700Mbps
*.switch8.eth[11].bitrate = 1500Mbps
*.host9.eth[0].bitrate = 1000Mbps
*.switch9.eth[0].bitrate = 1000Mbps
*.switch9.eth[1].bitrate = 1200Mbps
*.switch9.eth[2].bitrate = 2300Mbps
*.switch9.eth[3].bitrate = 1900Mbps
*.switch9.eth[4].bitrate = 2400Mbps
*.switch9.eth[5].bitrate = 1700Mbps
*.switch9.eth[6].bitrate = 1500Mbps
*.switch9.eth[7].bitrate = 1700Mbps
*.switch9.eth[8].bitrate = 1800Mbps
*.switch9.eth[9].bitrate = 1800Mbps
*.switch9.eth[10].bitrate = 2400Mbps
*.switch9.eth[11].bitrate = 1400Mbps
*.switch9.eth[12].bitrate = 1700Mbps
*.switch9.eth[13].bitrate = 1900Mbps
*.switch9.eth[14].bitrate = 1400Mbps
*.switch9.eth[15].bitrate = 1800Mbps
*.switch9.eth[16].bitrate = 1200Mbps
*.host10.eth[0].bitrate = 1000Mbps
*.switch10.eth[0].bitrate = 1000Mbps
*.switch10.eth[1].bitrate = 1700Mbps
*.switch10.eth[2].bitrate = 1600Mbps
*.switch10.eth[3].bitrate = 2000Mbps
*.switch10.eth[4].bitrate = 1800Mbps
*.switch10.eth[5].bitrate = 2200Mbps
*.switch10.eth[6].bitrate = 2400Mbps
*.switch10.eth[7].bitrate = 1500Mbps
*.switch10.eth[8].bitrate = 1400Mbps
*.switch10.eth[9].bitrate = 1400Mbps
*.switch10.eth[10].bitrate = 1700Mbps
*.switch10.eth[11].bitrate = 2100Mbps
*.host11.eth[0].bitrate = 1000Mbps
*.switch11.eth[0].bitrate = 1000Mbps
*.switch11.eth[1].bitrate = 2000Mbps
*.switch11.eth[2].bitrate = 1400Mbps
*.switch11.eth[3].bitrate = 2200Mbps
*.switch11.eth[4].bitrate = 2200Mbps
*.switch11.eth[5].bitrate = 2400Mbps
*.switch11.eth[6].bitrate = 1400Mbps
*.switch11.eth[7].bitrate = 1400Mbps
*.switch11.eth[8].bitrate = 2100Mbps
*.switch11.eth[9].bitrate = 1300Mbps
*.switch11.eth[10].bitrate = 1700Mbps
*.switch11.eth[11].bitrate = 1700Mbps
*.switch11.eth[12].bitrate = 1500Mbps
*.switch11.eth[13].bitrate = 1500Mbps
*.host12.eth[0].bitrate = 1000Mbps
*.switch12.eth[0].bitrate = 1000Mbps
*.switch12.eth[1].bitrate = 1300Mbps
*.switch12.eth[2].bitrate = 1500Mbps
*.switch12.eth[3].bitrate = 1800Mbps
*.switch12.eth[4].bitrate = 1300Mbps
*.switch12.eth[5].bitrate = 1700Mbps
*.switch12.eth[6].bitrate = 2100Mbps
*.switch12.eth[7].bitrate = 2100Mbps
*.switch12.eth[8].bitrate = 1700Mbps
*.switch12.eth[9].bitrate = 1800Mbps
*.switch12.eth[10].bitrate = 1500Mbps
*.switch12.eth[11].bitrate = 1300Mbps
*.switch12.eth[12].bitrate = 1300Mbps
*.switch12.eth[13].bitrate = 1700Mbps
*.switch12.eth[14].bitrate = 1500Mbps
*.switch12.eth[15].bitrate = 1400Mbps
*.switch12.eth[16].bitrate = 2400Mbps
*.switch12.eth[17].bitrate = 1600Mbps
*.switch12.eth[18].bitrate = 1700Mbps
*.host13.eth[0].bitrate = 1000Mbps
*.switch13.eth[0].bitrate = 1000Mbps
*.switch13.eth[1].bitrate = 1700Mbps
*.switch13.eth[2].bitrate = 2100Mbps
*.switch13.eth[3].bitrate = 1400Mbps
*.switch13.eth[4].bitrate = 1800Mbps
*.switch13.eth[5].bitrate = 1200Mbps
*.switch13.eth[6].bitrate = 1400Mbps
*.switch13.eth[7].bitrate = 2000Mbps
*.switch13.eth[8].bitrate = 1700Mbps
*.switch13.eth[9].bitrate = 1500Mbps
*.switch13.eth[10].bitrate = 2000Mbps
*.switch13.eth[11].bitrate = 2400Mbps
*.switch13.eth[12].bitrate = 1600Mbps
*.switch13.eth[13].bitrate = 2000Mbps
*.switch13.eth[14].bitrate = 1500Mbps
*.switch13.eth[15].bitrate = 1800Mbps
*.switch13.eth[16].bitrate = 2100Mbps
*.switch13.eth[17].bitrate = 1500Mbps
*.switch13.eth[18].bitrate = 1600Mbps
*.switch13.eth[19].bitrate = 1700Mbps
*.switch13.eth[20].bitrate = 1500Mbps
*.host14.eth[0].bitrate = 1000Mbps
*.switch14.eth[0].bitrate = 1000Mbps
*.switch14.eth[1].bitrate = 1600Mbps
*.switch14.eth[2].bitrate = 2200Mbps
*.switch14.eth[3].bitrate = 1700Mbps
*.switch14.eth[4].bitrate = 1900Mbps
*.switch14.eth[5].bitrate = 1900Mbps
*.switch14.eth[6].bitrate = 1700Mbps
*.switch14.eth[7].bitrate = 2400Mbps
*.switch14.eth[8].bitrate = 1700Mbps
*.switch14.eth[9].bitrate = 1500Mbps
*.switch14.eth[10].bitrate = 1700Mbps
*.switch14.eth[11].bitrate = 1400Mbps
*.switch14.eth[12].bitrate = 2200Mbps
*.switch14.eth[13].bitrate = 1200Mbps
*.switch14.eth[14].bitrate = 1700Mbps
*.switch14.eth[15].bitrate = 1500Mbps
*.host0.numApps = 2
*.host0.app[0].typename = "UdpSinkApp"
*.host0.app[0].io.localPort = 1000
*.host0.app[1].typename = "UdpSourceApp"
*.host0.app[1].io.destAddress = "host2"
*.host0.app[1].source.packetNameFormat = "%M-%m-%c"
*.host0.app[1].source.displayStringTextFormat = "sent %p pk (%l)"
*.host0.app[1].source.packetLength = 23B
*.host0.app[1].source.productionInterval = 1ms
*.host0.app[1].display-name = "type1_8"
*.host0.app[1].io.destPort = 1000
*.host1.numApps = 3
*.host1.app[0].typename = "UdpSourceApp"
*.host1.app[0].io.destAddress = "host10"
*.host1.app[0].source.packetNameFormat = "%M-%m-%c"
*.host1.app[0].source.displayStringTextFormat = "sent %p pk (%l)"
*.host1.app[0].source.packetLength = 18B
*.host1.app[0].source.productionInterval = 1ms
*.host1.app[0].display-name = "type1_1"
*.host1.app[0].io.destPort = 1000
*.host1.app[1].typename = "UdpSinkApp"
*.host1.app[1].io.localPort = 1000
*.host1.app[2].typename = "UdpSinkApp"
*.host1.app[2].io.localPort = 1001
*.host2.numApps = 5
*.host2.app[0].typename = "UdpSinkApp"
*.host2.app[0].io.localPort = 1000
*.host2.app[1].typename = "UdpBasicApp"
*.host2.app[1].destAddresses = "host13"
*.host2.app[1].source.packetNameFormat = "%M-%m-%c"
*.host2.app[1].source.displayStringTextFormat = "sent %p pk (%l)"
*.host2.app[1].messageLength = 21B
*.host2.app[1].sendInterval = 1ms
*.host2.app[1].startTime = 12ms
*.host2.app[1].stopTime = 20ms
*.host2.app[1].display-name = "type2_1"
*.host2.app[1].destPort = 1000
*.host2.app[2].typename = "UdpBasicApp"
*.host2.app[2].destAddresses = "host13"
*.host2.app[2].source.packetNameFormat = "%M-%m-%c"
*.host2.app[2].source.displayStringTextFormat = "sent %p pk (%l)"
*.host2.app[2].messageLength = 21B
*.host2.app[2].sendInterval = 1ms
*.host2.app[2].startTime = 36ms
*.host2.app[2].stopTime = 51ms
*.host2.app[2].display-name = "type2_1"
*.host2.app[2].destPort = 1000
*.host2.app[3].typename = "UdpBasicApp"
*.host2.app[3].destAddresses = "host13"
*.host2.app[3].source.packetNameFormat = "%M-%m-%c"
*.host2.app[3].source.displayStringTextFormat = "sent %p pk (%l)"
*.host2.app[3].messageLength = 21B
*.host2.app[3].sendInterval = 1ms
*.host2.app[3].startTime = 67ms
*.host2.app[3].stopTime = 71ms
*.host2.app[3].display-name = "type2_1"
*.host2.app[3].destPort = 1000
*.host2.app[4].typename = "UdpBasicApp"
*.host2.app[4].destAddresses = "host13"
*.host2.app[4].source.packetNameFormat = "%M-%m-%c"
*.host2.app[4].source.displayStringTextFormat = "sent %p pk (%l)"
*.host2.app[4].messageLength = 21B
*.host2.app[4].sendInterval = 1ms
*.host2.app[4].startTime = 81ms
*.host2.app[4].stopTime = 100ms
*.host2.app[4].display-name = "type2_1"
*.host2.app[4].destPort = 1000
*.host3.numApps = 2
*.host3.app[0].typename = "UdpSinkApp"
*.host3.app[0].io.localPort = 1000
*.host3.app[1].typename = "UdpSinkApp"
*.host3.app[1].io.localPort = 1001
*.host4.numApps = 16
*.host4.app[0].typename = "UdpBasicApp"
*.host4.app[0].destAddresses = "host12"
*.host4.app[0].source.packetNameFormat = "%M-%m-%c"
*.host4.app[0].source.displayStringTextFormat = "sent %p pk (%l)"
*.host4.app[0].messageLength = 16B
*.host4.app[0].sendInterval = 1ms
*.host4.app[0].startTime = 1ms
*.host4.app[0].stopTime = 8ms
*.host4.app[0].display-name = "type2_2"
*.host4.app[0].destPort = 1002
*.host4.app[1].typename = "UdpBasicApp"
*.host4.app[1].destAddresses = "host12"
*.host4.app[1].source.packetNameFormat = "%M-%m-%c"
*.host4.app[1].source.displayStringTextFormat = "sent %p pk (%l)"
*.host4.app[1].messageLength = 16B
*.host4.app[1].sendInterval = 1ms
*.host4.app[1].startTime = 9ms
*.host4.app[1].stopTime = 10ms
*.host4.app[1].display-name = "type2_2"
*.host4.app[1].destPort = 1002
*.host4.app[2].typename = "UdpBasicApp"
*.host4.app[2].destAddresses = "host12"
*.host4.app[2].source.packetNameFormat = "%M-%m-%c"
*.host4.app[2].source.displayStringTextFormat = "sent %p pk (%l)"
*.host4.app[2].messageLength = 16B
*.host4.app[2].sendInterval = 1ms
*.host4.app[2].startTime = 29ms
*.host4.app[2].stopTime = 36ms
*.host4.app[2].display-name = "type2_2"
*.host4.app[2].destPort = 1002
*.host4.app[3].typename = "UdpBasicApp"
*.host4.app[3].destAddresses = "host12"
*.host4.app[3].source.packetNameFormat = "%M-%m-%c"
*.host4.app[3].source.displayStringTextFormat = "sent %p pk (%l)"
*.host4.app[3].messageLength = 16B
*.host4.app[3].sendInterval = 1ms
*.host4.app[3].startTime = 41ms
*.host4.app[3].stopTime = 47ms
*.host4.app[3].display-name = "type2_2"
*.host4.app[3].destPort = 1002
*.host4.app[4].typename = "UdpBasicApp"
*.host4.app[4].destAddresses = "host12"
*.host4.app[4].source.packetNameFormat = "%M-%m-%c"
*.host4.app[4].source.displayStringTextFormat = "sent %p pk (%l)"
*.host4.app[4].messageLength = 16B
*.host4.app[4].sendInterval = 1ms
*.host4.app[4].startTime = 48ms
*.host4.app[4].stopTime = 58ms
*.host4.app[4].display-name = "type2_2"
*.host4.app[4].destPort = 1002
*.host4.app[5].typename = "UdpBasicApp"
*.host4.app[5].destAddresses = "host12"
*.host4.app[5].source.packetNameFormat = "%M-%m-%c"
*.host4.app[5].source.displayStringTextFormat = "sent %p pk (%l)"
*.host4.app[5].messageLength = 16B
*.host4.app[5].sendInterval = 1ms
*.host4.app[5].startTime = 60ms
*.host4.app[5].stopTime = 65ms
*.host4.app[5].display-name = "type2_2"
*.host4.app[5].destPort = 1002
*.host4.app[6].typename = "UdpBasicApp"
*.host4.app[6].destAddresses = "host12"
*.host4.app[6].source.packetNameFormat = "%M-%m-%c"
*.host4.app[6].source.displayStringTextFormat = "sent %p pk (%l)"
*.host4.app[6].messageLength = 16B
*.host4.app[6].sendInterval = 1ms
*.host4.app[6].startTime = 66ms
*.host4.app[6].stopTime = 73ms
*.host4.app[6].display-name = "type2_2"
*.host4.app[6].destPort = 1002
*.host4.app[7].typename = "UdpBasicApp"
*.host4.app[7].destAddresses = "host12"
*.host4.app[7].source.packetNameFormat = "%M-%m-%c"
*.host4.app[7].source.displayStringTextFormat = "sent %p pk (%l)"
*.host4.app[7].messageLength = 16B
*.host4.app[7].sendInterval = 1ms
*.host4.app[7].startTime = 78ms
*.host4.app[7].stopTime = 85ms
*.host4.app[7].display-name = "type2_2"
*.host4.app[7].destPort = 1002
*.host4.app[8].typename = "UdpBasicApp"
*.host4.app[8].destAddresses = "host12"
*.host4.app[8].source.packetNameFormat = "%M-%m-%c"
*.host4.app[8].source.displayStringTextFormat = "sent %p pk (%l)"
*.host4.app[8].messageLength = 16B
*.host4.app[8].sendInterval = 1ms
*.host4.app[8].startTime = 88ms
*.host4.app[8].stopTime = 94ms
*.host4.app[8].display-name = "type2_2"
*.host4.app[8].destPort = 1002
*.host4.app[9].typename = "UdpBasicApp"
*.host4.app[9].destAddresses = "host12"
*.host4.app[9].source.packetNameFormat = "%M-%m-%c"
*.host4.app[9].source.displayStringTextFormat = "sent %p pk (%l)"
*.host4.app[9].messageLength = 16B
*.host4.app[9].sendInterval = 1ms
*.host4.app[9].startTime = 99ms
*.host4.app[9].stopTime = 100ms
*.host4.app[9].display-name = "type2_2"
*.host4.app[9].destPort = 1002
*.host4.app[10].typename = "UdpBasicApp"
*.host4.app[10].destAddresses = "host14"
*.host4.app[10].source.packetNameFormat = "%M-%m-%c"
*.host4.app[10].source.displayStringTextFormat = "sent %p pk (%l)"
*.host4.app[10].messageLength = 15B
*.host4.app[10].sendInterval = 1ms
*.host4.app[10].startTime = 3ms
*.host4.app[10].stopTime = 5ms
*.host4.app[10].display-name = "type2_3"
*.host4.app[10].destPort = 1001
*.host4.app[11].typename = "UdpBasicApp"
*.host4.app[11].destAddresses = "host14"
*.host4.app[11].source.packetNameFormat = "%M-%m-%c"
*.host4.app[11].source.displayStringTextFormat = "sent %p pk (%l)"
*.host4.app[11].messageLength = 15B
*.host4.app[11].sendInterval = 1ms
*.host4.app[11].startTime = 30ms
*.host4.app[11].stopTime = 45ms
*.host4.app[11].display-name = "type2_3"
*.host4.app[11].destPort = 1001
*.host4.app[12].typename = "UdpBasicApp"
*.host4.app[12].destAddresses = "host14"
*.host4.app[12].source.packetNameFormat = "%M-%m-%c"
*.host4.app[12].source.displayStringTextFormat = "sent %p pk (%l)"
*.host4.app[12].messageLength = 15B
*.host4.app[12].sendInterval = 1ms
*.host4.app[12].startTime = 47ms
*.host4.app[12].stopTime = 56ms
*.host4.app[12].display-name = "type2_3"
*.host4.app[12].destPort = 1001
*.host4.app[13].typename = "UdpBasicApp"
*.host4.app[13].destAddresses = "host14"
*.host4.app[13].source.packetNameFormat = "%M-%m-%c"
*.host4.app[13].source.displayStringTextFormat = "sent %p pk (%l)"
*.host4.app[13].messageLength = 15B
*.host4.app[13].sendInterval = 1ms
*.host4.app[13].startTime = 58ms
*.host4.app[13].stopTime = 67ms
*.host4.app[13].display-name = "type2_3"
*.host4.app[13].destPort = 1001
*.host4.app[14].typename = "UdpBasicApp"
*.host4.app[14].destAddresses = "host14"
*.host4.app[14].source.packetNameFormat = "%M-%m-%c"
*.host4.app[14].source.displayStringTextFormat = "sent %p pk (%l)"
*.host4.app[14].messageLength = 15B
*.host4.app[14].sendInterval = 1ms
*.host4.app[14].startTime = 76ms
*.host4.app[14].stopTime = 81ms
*.host4.app[14].display-name = "type2_3"
*.host4.app[14].destPort = 1001
*.host4.app[15].typename = "UdpBasicApp"
*.host4.app[15].destAddresses = "host14"
*.host4.app[15].source.packetNameFormat = "%M-%m-%c"
*.host4.app[15].source.displayStringTextFormat = "sent %p pk (%l)"
*.host4.app[15].messageLength = 15B
*.host4.app[15].sendInterval = 1ms
*.host4.app[15].startTime = 93ms
*.host4.app[15].stopTime = 100ms
*.host4.app[15].display-name = "type2_3"
*.host4.app[15].destPort = 1001
*.host5.numApps = 8
*.host5.app[0].typename = "UdpSourceApp"
*.host5.app[0].io.destAddress = "host12"
*.host5.app[0].source.packetNameFormat = "%M-%m-%c"
*.host5.app[0].source.displayStringTextFormat = "sent %p pk (%l)"
*.host5.app[0].source.packetLength = 15B
*.host5.app[0].source.productionInterval = 1ms
*.host5.app[0].display-name = "type1_4"
*.host5.app[0].io.destPort = 1000
*.host5.app[1].typename = "UdpSourceApp"
*.host5.app[1].io.destAddress = "host1"
*.host5.app[1].source.packetNameFormat = "%M-%m-%c"
*.host5.app[1].source.displayStringTextFormat = "sent %p pk (%l)"
*.host5.app[1].source.packetLength = 20B
*.host5.app[1].source.productionInterval = 1ms
*.host5.app[1].display-name = "type1_7"
*.host5.app[1].io.destPort = 1000
*.host5.app[2].typename = "UdpSinkApp"
*.host5.app[2].io.localPort = 1000
*.host5.app[3].typename = "UdpBasicApp"
*.host5.app[3].destAddresses = "host3"
*.host5.app[3].source.packetNameFormat = "%M-%m-%c"
*.host5.app[3].source.displayStringTextFormat = "sent %p pk (%l)"
*.host5.app[3].messageLength = 18B
*.host5.app[3].sendInterval = 1ms
*.host5.app[3].startTime = 3ms
*.host5.app[3].stopTime = 4ms
*.host5.app[3].display-name = "type2_6"
*.host5.app[3].destPort = 1001
*.host5.app[4].typename = "UdpBasicApp"
*.host5.app[4].destAddresses = "host3"
*.host5.app[4].source.packetNameFormat = "%M-%m-%c"
*.host5.app[4].source.displayStringTextFormat = "sent %p pk (%l)"
*.host5.app[4].messageLength = 18B
*.host5.app[4].sendInterval = 1ms
*.host5.app[4].startTime = 15ms
*.host5.app[4].stopTime = 23ms
*.host5.app[4].display-name = "type2_6"
*.host5.app[4].destPort = 1001
*.host5.app[5].typename = "UdpBasicApp"
*.host5.app[5].destAddresses = "host3"
*.host5.app[5].source.packetNameFormat = "%M-%m-%c"
*.host5.app[5].source.displayStringTextFormat = "sent %p pk (%l)"
*.host5.app[5].messageLength = 18B
*.host5.app[5].sendInterval = 1ms
*.host5.app[5].startTime = 39ms
*.host5.app[5].stopTime = 61ms
*.host5.app[5].display-name = "type2_6"
*.host5.app[5].destPort = 1001
*.host5.app[6].typename = "UdpBasicApp"
*.host5.app[6].destAddresses = "host3"
*.host5.app[6].source.packetNameFormat = "%M-%m-%c"
*.host5.app[6].source.displayStringTextFormat = "sent %p pk (%l)"
*.host5.app[6].messageLength = 18B
*.host5.app[6].sendInterval = 1ms
*.host5.app[6].startTime = 70ms
*.host5.app[6].stopTime = 83ms
*.host5.app[6].display-name = "type2_6"
*.host5.app[6].destPort = 1001
*.host5.app[7].typename = "UdpBasicApp"
*.host5.app[7].destAddresses = "host3"
*.host5.app[7].source.packetNameFormat = "%M-%m-%c"
*.host5.app[7].source.displayStringTextFormat = "sent %p pk (%l)"
*.host5.app[7].messageLength = 18B
*.host5.app[7].sendInterval = 1ms
*.host5.app[7].startTime = 86ms
*.host5.app[7].stopTime = 93ms
*.host5.app[7].display-name = "type2_6"
*.host5.app[7].destPort = 1001
*.host6.numApps = 1
*.host6.app[0].typename = "UdpSinkApp"
*.host6.app[0].io.localPort = 1000
*.host7.numApps = 12
*.host7.app[0].typename = "UdpSourceApp"
*.host7.app[0].io.destAddress = "host3"
*.host7.app[0].source.packetNameFormat = "%M-%m-%c"
*.host7.app[0].source.displayStringTextFormat = "sent %p pk (%l)"
*.host7.app[0].source.packetLength = 22B
*.host7.app[0].source.productionInterval = 1ms
*.host7.app[0].display-name = "type1_0"
*.host7.app[0].io.destPort = 1000
*.host7.app[1].typename = "UdpSinkApp"
*.host7.app[1].io.localPort = 1000
*.host7.app[2].typename = "UdpBasicApp"
*.host7.app[2].destAddresses = "host5"
*.host7.app[2].source.packetNameFormat = "%M-%m-%c"
*.host7.app[2].source.displayStringTextFormat = "sent %p pk (%l)"
*.host7.app[2].messageLength = 22B
*.host7.app[2].sendInterval = 1ms
*.host7.app[2].startTime = 2ms
*.host7.app[2].stopTime = 31ms
*.host7.app[2].display-name = "type2_4"
*.host7.app[2].destPort = 1000
*.host7.app[3].typename = "UdpBasicApp"
*.host7.app[3].destAddresses = "host5"
*.host7.app[3].source.packetNameFormat = "%M-%m-%c"
*.host7.app[3].source.displayStringTextFormat = "sent %p pk (%l)"
*.host7.app[3].messageLength = 22B
*.host7.app[3].sendInterval = 1ms
*.host7.app[3].startTime = 54ms
*.host7.app[3].stopTime = 59ms
*.host7.app[3].display-name = "type2_4"
*.host7.app[3].destPort = 1000
*.host7.app[4].typename = "UdpBasicApp"
*.host7.app[4].destAddresses = "host5"
*.host7.app[4].source.packetNameFormat = "%M-%m-%c"
*.host7.app[4].source.displayStringTextFormat = "sent %p pk (%l)"
*.host7.app[4].messageLength = 22B
*.host7.app[4].sendInterval = 1ms
*.host7.app[4].startTime = 60ms
*.host7.app[4].stopTime = 66ms
*.host7.app[4].display-name = "type2_4"
*.host7.app[4].destPort = 1000
*.host7.app[5].typename = "UdpBasicApp"
*.host7.app[5].destAddresses = "host5"
*.host7.app[5].source.packetNameFormat = "%M-%m-%c"
*.host7.app[5].source.displayStringTextFormat = "sent %p pk (%l)"
*.host7.app[5].messageLength = 22B
*.host7.app[5].sendInterval = 1ms
*.host7.app[5].startTime = 78ms
*.host7.app[5].stopTime = 81ms
*.host7.app[5].display-name = "type2_4"
*.host7.app[5].destPort = 1000
*.host7.app[6].typename = "UdpBasicApp"
*.host7.app[6].destAddresses = "host8"
*.host7.app[6].source.packetNameFormat = "%M-%m-%c"
*.host7.app[6].source.displayStringTextFormat = "sent %p pk (%l)"
*.host7.app[6].messageLength = 23B
*.host7.app[6].sendInterval = 1ms
*.host7.app[6].startTime = 5ms
*.host7.app[6].stopTime = 8ms
*.host7.app[6].display-name = "type2_7"
*.host7.app[6].destPort = 1001
*.host7.app[7].typename = "UdpBasicApp"
*.host7.app[7].destAddresses = "host8"
*.host7.app[7].source.packetNameFormat = "%M-%m-%c"
*.host7.app[7].source.displayStringTextFormat = "sent %p pk (%l)"
*.host7.app[7].messageLength = 23B
*.host7.app[7].sendInterval = 1ms
*.host7.app[7].startTime = 9ms
*.host7.app[7].stopTime = 18ms
*.host7.app[7].display-name = "type2_7"
*.host7.app[7].destPort = 1001
*.host7.app[8].typename = "UdpBasicApp"
*.host7.app[8].destAddresses = "host8"
*.host7.app[8].source.packetNameFormat = "%M-%m-%c"
*.host7.app[8].source.displayStringTextFormat = "sent %p pk (%l)"
*.host7.app[8].messageLength = 23B
*.host7.app[8].sendInterval = 1ms
*.host7.app[8].startTime = 21ms
*.host7.app[8].stopTime = 28ms
*.host7.app[8].display-name = "type2_7"
*.host7.app[8].destPort = 1001
*.host7.app[9].typename = "UdpBasicApp"
*.host7.app[9].destAddresses = "host8"
*.host7.app[9].source.packetNameFormat = "%M-%m-%c"
*.host7.app[9].source.displayStringTextFormat = "sent %p pk (%l)"
*.host7.app[9].messageLength = 23B
*.host7.app[9].sendInterval = 1ms
*.host7.app[9].startTime = 30ms
*.host7.app[9].stopTime = 34ms
*.host7.app[9].display-name = "type2_7"
*.host7.app[9].destPort = 1001
*.host7.app[10].typename = "UdpBasicApp"
*.host7.app[10].destAddresses = "host8"
*.host7.app[10].source.packetNameFormat = "%M-%m-%c"
*.host7.app[10].source.displayStringTextFormat = "sent %p pk (%l)"
*.host7.app[10].messageLength = 23B
*.host7.app[10].sendInterval = 1ms
*.host7.app[10].startTime = 74ms
*.host7.app[10].stopTime = 75ms
*.host7.app[10].display-name = "type2_7"
*.host7.app[10].destPort = 1001
*.host7.app[11].typename = "UdpBasicApp"
*.host7.app[11].destAddresses = "host8"
*.host7.app[11].source.packetNameFormat = "%M-%m-%c"
*.host7.app[11].source.displayStringTextFormat = "sent %p pk (%l)"
*.host7.app[11].messageLength = 23B
*.host7.app[11].sendInterval = 1ms
*.host7.app[11].startTime = 93ms
*.host7.app[11].stopTime = 100ms
*.host7.app[11].display-name = "type2_7"
*.host7.app[11].destPort = 1001
*.host8.numApps = 4
*.host8.app[0].typename = "UdpSourceApp"
*.host8.app[0].io.destAddress = "host14"
*.host8.app[0].source.packetNameFormat = "%M-%m-%c"
*.host8.app[0].source.displayStringTextFormat = "sent %p pk (%l)"
*.host8.app[0].source.packetLength = 22B
*.host8.app[0].source.productionInterval = 1ms
*.host8.app[0].display-name = "type1_2"
*.host8.app[0].io.destPort = 1000
*.host8.app[1].typename = "UdpSinkApp"
*.host8.app[1].io.localPort = 1000
*.host8.app[2].typename = "UdpSourceApp"
*.host8.app[2].io.destAddress = "host0"
*.host8.app[2].source.packetNameFormat = "%M-%m-%c"
*.host8.app[2].source.displayStringTextFormat = "sent %p pk (%l)"
*.host8.app[2].source.packetLength = 22B
*.host8.app[2].source.productionInterval = 1ms
*.host8.app[2].display-name = "type1_6"
*.host8.app[2].io.destPort = 1000
*.host8.app[3].typename = "UdpSinkApp"
*.host8.app[3].io.localPort = 1001
*.host9.numApps = 2
*.host9.app[0].typename = "UdpSourceApp"
*.host9.app[0].io.destAddress = "host8"
*.host9.app[0].source.packetNameFormat = "%M-%m-%c"
*.host9.app[0].source.displayStringTextFormat = "sent %p pk (%l)"
*.host9.app[0].source.packetLength = 15B
*.host9.app[0].source.productionInterval = 1ms
*.host9.app[0].display-name = "type1_3"
*.host9.app[0].io.destPort = 1000
*.host9.app[1].typename = "UdpSourceApp"
*.host9.app[1].io.destAddress = "host12"
*.host9.app[1].source.packetNameFormat = "%M-%m-%c"
*.host9.app[1].source.displayStringTextFormat = "sent %p pk (%l)"
*.host9.app[1].source.packetLength = 15B
*.host9.app[1].source.productionInterval = 1ms
*.host9.app[1].display-name = "type1_5"
*.host9.app[1].io.destPort = 1001
*.host10.numApps = 1
*.host10.app[0].typename = "UdpSinkApp"
*.host10.app[0].io.localPort = 1000
*.host11.numApps = 0
*.host12.numApps = 17
*.host12.app[0].typename = "UdpSinkApp"
*.host12.app[0].io.localPort = 1000
*.host12.app[1].typename = "UdpSinkApp"
*.host12.app[1].io.localPort = 1001
*.host12.app[2].typename = "UdpBasicApp"
*.host12.app[2].destAddresses = "host7"
*.host12.app[2].source.packetNameFormat = "%M-%m-%c"
*.host12.app[2].source.displayStringTextFormat = "sent %p pk (%l)"
*.host12.app[2].messageLength = 15B
*.host12.app[2].sendInterval = 1ms
*.host12.app[2].startTime = 9ms
*.host12.app[2].stopTime = 16ms
*.host12.app[2].display-name = "type2_0"
*.host12.app[2].destPort = 1000
*.host12.app[3].typename = "UdpBasicApp"
*.host12.app[3].destAddresses = "host7"
*.host12.app[3].source.packetNameFormat = "%M-%m-%c"
*.host12.app[3].source.displayStringTextFormat = "sent %p pk (%l)"
*.host12.app[3].messageLength = 15B
*.host12.app[3].sendInterval = 1ms
*.host12.app[3].startTime = 24ms
*.host12.app[3].stopTime = 46ms
*.host12.app[3].display-name = "type2_0"
*.host12.app[3].destPort = 1000
*.host12.app[4].typename = "UdpBasicApp"
*.host12.app[4].destAddresses = "host7"
*.host12.app[4].source.packetNameFormat = "%M-%m-%c"
*.host12.app[4].source.displayStringTextFormat = "sent %p pk (%l)"
*.host12.app[4].messageLength = 15B
*.host12.app[4].sendInterval = 1ms
*.host12.app[4].startTime = 58ms
*.host12.app[4].stopTime = 61ms
*.host12.app[4].display-name = "type2_0"
*.host12.app[4].destPort = 1000
*.host12.app[5].typename = "UdpBasicApp"
*.host12.app[5].destAddresses = "host7"
*.host12.app[5].source.packetNameFormat = "%M-%m-%c"
*.host12.app[5].source.displayStringTextFormat = "sent %p pk (%l)"
*.host12.app[5].messageLength = 15B
*.host12.app[5].sendInterval = 1ms
*.host12.app[5].startTime = 66ms
*.host12.app[5].stopTime = 75ms
*.host12.app[5].display-name = "type2_0"
*.host12.app[5].destPort = 1000
*.host12.app[6].typename = "UdpBasicApp"
*.host12.app[6].destAddresses = "host7"
*.host12.app[6].source.packetNameFormat = "%M-%m-%c"
*.host12.app[6].source.displayStringTextFormat = "sent %p pk (%l)"
*.host12.app[6].messageLength = 15B
*.host12.app[6].sendInterval = 1ms
*.host12.app[6].startTime = 87ms
*.host12.app[6].stopTime = 88ms
*.host12.app[6].display-name = "type2_0"
*.host12.app[6].destPort = 1000
*.host12.app[7].typename = "UdpBasicApp"
*.host12.app[7].destAddresses = "host7"
*.host12.app[7].source.packetNameFormat = "%M-%m-%c"
*.host12.app[7].source.displayStringTextFormat = "sent %p pk (%l)"