[General]
network = TSN_multipath
sim-time-limit = 100ms
*.macForwardingTableConfigurator.typename = ""
*.*.hasStreamRedundancy = true
*.*.bridging.streamRelay.typename = "StreamRelayLayer"
*.*.bridging.streamCoder.typename = "StreamCoderLayer"
*.streamRedundancyConfigurator.typename = "StreamRedundancyConfigurator"
*.host0.eth[0].bitrate = 1000Mbps
*.switch0.eth[0].bitrate = 1000Mbps
*.switch0.eth[1].bitrate = 1300Mbps
*.switch0.eth[2].bitrate = 1200Mbps
*.switch0.eth[3].bitrate = 2100Mbps
*.switch0.eth[4].bitrate = 1400Mbps
*.switch0.eth[5].bitrate = 2300Mbps
*.switch0.eth[6].bitrate = 1200Mbps
*.switch0.eth[7].bitrate = 1600Mbps
*.switch0.eth[8].bitrate = 1500Mbps
*.switch0.eth[9].bitrate = 2100Mbps
*.switch0.eth[10].bitrate = 1500Mbps
*.switch0.eth[11].bitrate = 1200Mbps
*.switch0.eth[12].bitrate = 1700Mbps
*.switch0.eth[13].bitrate = 2300Mbps
*.switch0.eth[14].bitrate = 2200Mbps
*.switch0.eth[15].bitrate = 1400Mbps
*.switch0.eth[16].bitrate = 1300Mbps
*.switch0.eth[17].bitrate = 1900Mbps
*.switch0.eth[18].bitrate = 2100Mbps
*.switch0.eth[19].bitrate = 1600Mbps
*.switch0.eth[20].bitrate = 2400Mbps
*.switch0.eth[21].bitrate = 2400Mbps
*.switch0.eth[22].bitrate = 1800Mbps
*.host1.eth[0].bitrate = 1000Mbps
*.switch1.eth[0].bitrate = 1000Mbps
*.switch1.eth[1].bitrate = 1300Mbps
*.switch1.eth[2].bitrate = 1400Mbps
*.switch1.eth[3].bitrate = 1700Mbps
*.switch1.eth[4].bitrate = 2200Mbps
*.switch1.eth[5].bitrate = 2100Mbps
*.switch1.eth[6].bitrate = 2400Mbps
*.switch1.eth[7].bitrate = 1700Mbps
*.switch1.eth[8].bitrate = 1300Mbps
*.switch1.eth[9].bitrate = 1300Mbps
*.switch1.eth[10].bitrate = 1500Mbps
*.switch1.eth[11].bitrate = 1800Mbps
*.switch1.eth[12].bitrate = 1600Mbps
*.switch1.eth[13].bitrate = 2400Mbps
*.switch1.eth[14].bitrate = 1200Mbps
*.switch1.eth[15].bitrate = 2000Mbps
*.switch1.eth[16].bitrate = 2300Mbps
*.switch1.eth[17].bitrate = 1200Mbps
*.switch1.eth[18].bitrate = 2100Mbps
*.switch1.eth[19].bitrate = 2000Mbps
*.switch1.eth[20].bitrate = 2200Mbps
*.switch1.eth[21].bitrate = 1800Mbps
*.switch1.eth[22].bitrate = 1700Mbps
*.switch1.eth[23].bitrate = 1800Mbps
*.host2.eth[0].bitrate = 1000Mbps
*.switch2.eth[0].bitrate = 1000Mbps
*.switch2.eth[1].bitrate = 1200Mbps
*.switch2.eth[2].bitrate = 1700Mbps
*.switch2.eth[3].bitrate = 1300Mbps
*.switch2.eth[4].bitrate = 2100Mbps
*.switch2.eth[5].bitrate = 2000Mbps
*.switch2.eth[6].bitrate = 1300Mbps
*.switch2.eth[7].bitrate = 1400Mbps
*.switch2.eth[8].bitrate = 2400Mbps
*.switch2.eth[9].bitrate = 1600Mbps
*.switch2.eth[10].bitrate = 2000Mbps
*.switch2.eth[11].bitrate = 1800Mbps
*.switch2.eth[12].bitrate = 1300Mbps
*.switch2.eth[13].bitrate = 1900Mbps
*.switch2.eth[14].bitrate = 2400Mbps
*.switch2.eth[15].bitrate = 1200Mbps
*.switch2.eth[16].bitrate = 1800Mbps
*.switch2.eth[17].bitrate = 2300Mbps
*.switch2.eth[18].bitrate = 2400Mbps
*.switch2.eth[19].bitrate = 1500Mbps
*.switch2.eth[20].bitrate = 1400Mbps
*.switch2.eth[21].bitrate = 1900Mbps
*.switch2.eth[22].bitrate = 1400Mbps
*.switch2.eth[23].bitrate = 1600Mbps
*.switch2.eth[24].bitrate = 1700Mbps
*.switch2.eth[25].bitrate = 1900Mbps
*.switch2.eth[26].bitrate = 1900Mbps
*.host3.eth[0].bitrate = 1000Mbps
*.switch3.eth[0].bitrate = 1000Mbps
*.switch3.eth[1].bitrate = 2100Mbps
*.switch3.eth[2].bitrate = 2200Mbps
*.switch3.eth[3].bitrate = 2000Mbps
*.switch3.eth[4].bitrate = 1500Mbps
*.switch3.eth[5].bitrate = 2000Mbps
*.switch3.eth[6].bitrate = 1800Mbps
*.switch3.eth[7].bitrate = 2400Mbps
*.switch3.eth[8].bitrate = 1300Mbps
*.switch3.eth[9].bitrate = 2100Mbps
*.switch3.eth[10].bitrate = 1200Mbps
*.switch3.eth[11].bitrate = 2100Mbps
*.switch3.eth[12].bitrate = 2000Mbps
*.switch3.eth[13].bitrate = 2400Mbps
*.switch3.eth[14].bitrate = 1800Mbps
*.switch3.eth[15].bitrate = 2400Mbps
*.switch3.eth[16].bitrate = 2000Mbps
*.switch3.eth[17].bitrate = 1900Mbps
*.switch3.eth[18].bitrate = 1900Mbps
*.switch3.eth[19].bitrate = 2000Mbps
*.switch3.eth[20].bitrate = 2200Mbps
*.host4.eth[0].bitrate = 1000Mbps
*.switch4.eth[0].bitrate = 1000Mbps
*.switch4.eth[1].bitrate = 1400Mbps
*.switch4.eth[2].bitrate = 2100Mbps
*.switch4.eth[3].bitrate = 1300Mbps
*.switch4.eth[4].bitrate = 1900Mbps
*.switch4.eth[5].bitrate = 1400Mbps
*.switch4.eth[6].bitrate = 2000Mbps
*.switch4.eth[7].bitrate = 1800Mbps
*.switch4.eth[8].bitrate = 1200Mbps
*.switch4.eth[9].bitrate = 2200Mbps
*.switch4.eth[10].bitrate = 1600Mbps
*.switch4.eth[11].bitrate = 1700Mbps
*.switch4.eth[12].bitrate = 1600Mbps
*.switch4.eth[13].bitrate = 2400Mbps
*.switch4.eth[14].bitrate = 1600Mbps
*.switch4.eth[15].bitrate = 2000Mbps
*.switch4.eth[16].bitrate = 1400Mbps
*.switch4.eth[17].bitrate = 1800Mbps
*.host5.eth[0].bitrate = 1000Mbps
*.switch5.eth[0].bitrate = 1000Mbps
*.switch5.eth[1].bitrate = 2300Mbps
*.switch5.eth[2].bitrate = 2400Mbps
*.switch5.eth[3].bitrate = 1400Mbps
*.switch5.eth[4].bitrate = 2100Mbps
*.switch5.eth[5].bitrate = 2000Mbps
*.switch5.eth[6].bitrate = 1900Mbps
*.switch5.eth[7].bitrate = 2400Mbps
*.switch5.eth[8].bitrate = 1600Mbps
*.switch5.eth[9].bitrate = 2100Mbps
*.switch5.eth[10].bitrate = 1800Mbps
*.switch5.eth[11].bitrate = 2400Mbps
*.switch5.eth[12].bitrate = 2000Mbps
*.switch5.eth[13].bitrate = 1600Mbps
*.switch5.eth[14].bitrate = 2100Mbps
*.switch5.eth[15].bitrate = 1200Mbps
*.switch5.eth[16].bitrate = 2000Mbps
*.switch5.eth[17].bitrate = 2200Mbps
*.switch5.eth[18].bitrate = 1400Mbps
*.switch5.eth[19].bitrate = 1800Mbps
*.switch5.eth[20].bitrate = 1700Mbps
*.switch5.eth[21].bitrate = 2300Mbps
*.switch5.eth[22].bitrate = 1500Mbps
*.switch5.eth[23].bitrate = 1300Mbps
*.switch5.eth[24].bitrate = 1600Mbps
*.switch5.eth[25].bitrate = 1700Mbps
*.switch5.eth[26].bitrate = 1200Mbps
*.host6.eth[0].bitrate = 1000Mbps
*.switch6.eth[0].bitrate = 1000Mbps
*.switch6.eth[1].bitrate = 1200Mbps
*.switch6.eth[2].bitrate = 2400Mbps
*.switch6.eth[3].bitrate = 2000Mbps
*.switch6.eth[4].bitrate = 1800Mbps
*.switch6.eth[5].bitrate = 2100Mbps
*.switch6.eth[6].bitrate = 1600Mbps
*.switch6.eth[7].bitrate = 2200Mbps
*.switch6.eth[8].bitrate = 1400Mbps
*.switch6.eth[9].bitrate = 1800Mbps
*.switch6.eth[10].bitrate = 2400Mbps
*.switch6.eth[11].bitrate = 1700Mbps
*.switch6.eth[12].bitrate = 2300Mbps
*.switch6.eth[13].bitrate = 1500Mbps
*.switch6.eth[14].bitrate = 2100Mbps
*.switch6.eth[15].bitrate = 2000Mbps
*.switch6.eth[16].bitrate = 2400Mbps
*.switch6.eth[17].bitrate = 1500Mbps
*.switch6.eth[18].bitrate = 1900Mbps
*.switch6.eth[19].bitrate = 1400Mbps
*.switch6.eth[20].bitrate = 1300Mbps
*.switch6.eth[21].bitrate = 1800Mbps
*.switch6.eth[22].bitrate = 1800Mbps
*.switch6.eth[23].bitrate = 1300Mbps
*.switch6.eth[24].bitrate = 1300Mbps
*.host7.eth[0].bitrate = 1000Mbps
*.switch7.eth[0].bitrate = 1000Mbps
*.switch7.eth[1].bitrate = 1600Mbps
*.switch7.eth[2].bitrate = 1600Mbps
*.switch7.eth[3].bitrate = 1800Mbps
*.switch7.eth[4].bitrate = 1700Mbps
*.switch7.eth[5].bitrate = 2300Mbps
*.switch7.eth[6].bitrate = 1900Mbps
*.switch7.eth[7].bitrate = 1500Mbps
*.switch7.eth[8].bitrate = 1300Mbps
*.switch7.eth[9].bitrate = 1600Mbps
*.switch7.eth[10].bitrate = 1500Mbps
*.switch7.eth[11].bitrate = 1400Mbps
*.switch7.eth[12].bitrate = 1700Mbps
*.switch7.eth[13].bitrate = 1200Mbps
*.host8.eth[0].bitrate = 1000Mbps
*.switch8.eth[0].bitrate = 1000Mbps
*.switch8.eth[1].bitrate = 1500Mbps
*.switch8.eth[2].bitrate = 1700Mbps
*.switch8.eth[3].bitrate = 2000Mbps
*.switch8.eth[4].bitrate = 1800Mbps
*.switch8.eth[5].bitrate = 2400Mbps
*.switch8.eth[6].bitrate = 2400Mbps
*.switch8.eth[7].bitrate = 1600Mbps
*.switch8.eth[8].bitrate = 1500Mbps
*.switch8.eth[9].bitrate = 1300Mbps
*.switch8.eth[10].bitrate = 1600Mbps
*.switch8.eth[11].bitrate = 2300Mbps
*.switch8.eth[12].bitrate = 1800Mbps
*.switch8.eth[13].bitrate = 1200Mbps
*.switch8.eth[14].bitrate = 2200Mbps
*.switch8.eth[15].bitrate = 1500Mbps
*.switch8.eth[16].bitrate = 1900Mbps
*.switch8.eth[17].bitrate = 1600Mbps
*.switch8.eth[18].bitrate = 2000Mbps
*.switch8.eth[19].bitrate = 2100Mbps
*.switch8.eth[20].bitrate = 1300Mbps
*.switch8.eth[21].bitrate = 1700Mbps
*.switch8.eth[22].bitrate = 1500Mbps
*.switch8.eth[23].bitrate = 2400Mbps
*.host9.eth[0].bitrate = 1000Mbps
*.switch9.eth[0].bitrate = 1000Mbps
*.switch9.eth[1].bitrate = 2100Mbps
*.switch9.eth[2].bitrate = 1300Mbps
*.switch9.eth[3].bitrate = 2000Mbps
*.switch9.eth[4].bitrate = 2300Mbps
*.switch9.eth[5].bitrate = 2300Mbps
*.switch9.eth[6].bitrate = 1300Mbps
*.switch9.eth[7].bitrate = 1800Mbps
*.switch9.eth[8].bitrate = 2000Mbps
*.switch9.eth[9].bitrate = 1700Mbps
*.switch9.eth[10].bitrate = 1500Mbps
*.switch9.eth[11].bitrate = 1200Mbps
*.switch9.eth[12].bitrate = 2100Mbps
*.switch9.eth[13].bitrate = 1300Mbps
*.switch9.eth[14].bitrate = 2400Mbps
*.switch9.eth[15].bitrate = 1900Mbps
*.host10.eth[0].bitrate = 1000Mbps
*.switch10.eth[0].bitrate = 1000Mbps
*.switch10.eth[1].bitrate = 1500Mbps
*.switch10.eth[2].bitrate = 1300Mbps
*.switch10.eth[3].bitrate = 1600Mbps
*.switch10.eth[4].bitrate = 1800Mbps
*.switch10.eth[5].bitrate = 1800Mbps
*.switch10.eth[6].bitrate = 1600Mbps
*.switch10.eth[7].bitrate = 2000Mbps
*.switch10.eth[8].bitrate = 2000Mbps
*.switch10.eth[9].bitrate = 1800Mbps
*.switch10.eth[10].bitrate = 1500Mbps
*.switch10.eth[11].bitrate = 2100Mbps
*.switch10.eth[12].bitrate = 1200Mbps
*.switch10.eth[13].bitrate = 1200Mbps
*.switch10.eth[14].bitrate = 2000Mbps
*.switch10.eth[15].bitrate = 1400Mbps
*.switch10.eth[16].bitrate = 1800Mbps
*.switch10.eth[17].bitrate = 1500Mbps
*.switch10.eth[18].bitrate = 1300Mbps
*.switch10.eth[19].bitrate = 1400Mbps
*.switch10.eth[20].bitrate = 1500Mbps
*.host11.eth[0].bitrate = 1000Mbps
*.switch11.eth[0].bitrate = 1000Mbps
*.switch11.eth[1].bitrate = 1500Mbps
*.switch11.eth[2].bitrate = 1800Mbps
*.switch11.eth[3].bitrate = 2400Mbps
*.switch11.eth[4].bitrate = 1200Mbps
*.switch11.eth[5].bitrate = 2100Mbps
*.switch11.eth[6].bitrate = 1500Mbps
*.switch11.eth[7].bitrate = 1700Mbps
*.switch11.eth[8].bitrate = 1200Mbps
*.switch11.eth[9].bitrate = 2400Mbps
*.switch11.eth[10].bitrate = 1700Mbps
*.switch11.eth[11].bitrate = 1400Mbps
*.switch11.eth[12].bitrate = 1600Mbps
*.switch11.eth[13].bitrate = 1400Mbps
*.switch11.eth[14].bitrate = 1300Mbps
*.switch11.eth[15].bitrate = 2100Mbps
*.switch11.eth[16].bitrate = 1700Mbps
*.switch11.eth[17].bitrate = 1200Mbps
*.switch11.eth[18].bitrate = 2300Mbps
*.switch11.eth[19].bitrate = 2100Mbps
*.switch11.eth[20].bitrate = 1800Mbps
*.switch11.eth[21].bitrate = 2400Mbps
*.switch11.eth[22].bitrate = 1900Mbps
*.switch11.eth[23].bitrate = 1700Mbps
*.switch11.eth[24].bitrate = 1500Mbps
*.switch11.eth[25].bitrate = 2400Mbps
*.host12.eth[0].bitrate = 1000Mbps
*.switch12.eth[0].bitrate = 1000Mbps
*.switch12.eth[1].bitrate = 1200Mbps
*.switch12.eth[2].bitrate = 1800Mbps
*.switch12.eth[3].bitrate = 1300Mbps
*.switch12.eth[4].bitrate = 1200Mbps
*.switch12.eth[5].bitrate = 1200Mbps
*.switch12.eth[6].bitrate = 2000Mbps
*.switch12.eth[7].bitrate = 1700Mbps
*.switch12.eth[8].bitrate = 1700Mbps
*.switch12.eth[9].bitrate = 2400Mbps
*.switch12.eth[10].bitrate = 2400Mbps
*.switch12.eth[11].bitrate = 2400Mbps
*.switch12.eth[12].bitrate = 1300Mbps
*.switch12.eth[13].bitrate = 1200Mbps
*.switch12.eth[14].bitrate = 1200Mbps
*.switch12.eth[15].bitrate = 1300Mbps
*.host13.eth[0].bitrate = 1000Mbps
*.switch13.eth[0].bitrate = 1000Mbps
*.switch13.eth[1].bitrate = 1900Mbps
*.switch13.eth[2].bitrate = 1300Mbps
*.switch13.eth[3].bitrate = 2200Mbps
*.switch13.eth[4].bitrate = 2000Mbps
*.switch13.eth[5].bitrate = 2100Mbps
*.switch13.eth[6].bitrate = 1900Mbps
*.switch13.eth[7].bitrate = 2200Mbps
*.switch13.eth[8].bitrate = 1400Mbps
*.switch13.eth[9].bitrate = 1700Mbps
*.switch13.eth[10].bitrate = 1900Mbps
*.switch13.eth[11].bitrate = 1900Mbps
*.switch13.eth[12].bitrate = 1300Mbps
*.switch13.eth[13].bitrate = 1400Mbps
*.switch13.eth[14].bitrate = 1900Mbps
*.switch13.eth[15].bitrate = 1300Mbps
*.switch13.eth[16].bitrate = 1400Mbps
*.switch13.eth[17].bitrate = 1900Mbps
*.switch13.eth[18].bitrate = 2000Mbps
*.switch13.eth[19].bitrate = 2400Mbps
*.switch13.eth[20].bitrate = 1200Mbps
*.switch13.eth[21].bitrate = 2300Mbps
*.host14.eth[0].bitrate = 1000Mbps
*.switch14.eth[0].bitrate = 1000Mbps
*.switch14.eth[1].bitrate = 1700Mbps
*.switch14.eth[2].bitrate = 1600Mbps
*.switch14.eth[3].bitrate = 2400Mbps
*.switch14.eth[4].bitrate = 2200Mbps
*.switch14.eth[5].bitrate = 1200Mbps
*.switch14.eth[6].bitrate = 1900Mbps
*.switch14.eth[7].bitrate = 1200Mbps
*.switch14.eth[8].bitrate = 1700Mbps
*.switch14.eth[9].bitrate = 2400Mbps
*.switch14.eth[10].bitrate = 1200Mbps
*.switch14.eth[11].bitrate = 1700Mbps
*.switch14.eth[12].bitrate = 1600Mbps
*.host15.eth[0].bitrate = 1000Mbps
*.switch15.eth[0].bitrate = 1000Mbps
*.switch15.eth[1].bitrate = 2400Mbps
*.switch15.eth[2].bitrate = 1200Mbps
*.switch15.eth[3].bitrate = 1400Mbps
*.switch15.eth[4].bitrate = 2000Mbps
*.switch15.eth[5].bitrate = 1500Mbps
*.switch15.eth[6].bitrate = 2300Mbps
*.switch15.eth[7].bitrate = 2400Mbps
*.switch15.eth[8].bitrate = 2000Mbps
*.switch15.eth[9].bitrate = 1700Mbps
*.switch15.eth[10].bitrate = 1200Mbps
*.switch15.eth[11].bitrate = 1200Mbps
*.switch15.eth[12].bitrate = 2300Mbps
*.switch15.eth[13].bitrate = 1900Mbps
*.host16.eth[0].bitrate = 1000Mbps
*.switch16.eth[0].bitrate = 1000Mbps
*.switch16.eth[1].bitrate = 2300Mbps
*.switch16.eth[2].bitrate = 1200Mbps
*.switch16.eth[3].bitrate = 1800Mbps
*.switch16.eth[4].bitrate = 2100Mbps
*.switch16.eth[5].bitrate = 2400Mbps
*.switch16.eth[6].bitrate = 1800Mbps
*.switch16.eth[7].bitrate = 1400Mbps
*.switch16.eth[8].bitrate = 1200Mbps
*.switch16.eth[9].bitrate = 1500Mbps
*.switch16.eth[10].bitrate = 1300Mbps
*.switch16.eth[11].bitrate = 1800Mbps
*.host17.eth[0].bitrate = 1000Mbps
*.switch17.eth[0].bitrate = 1000Mbps
*.switch17.eth[1].bitrate = 2000Mbps
*.switch17.eth[2].bitrate = 2300Mbps
*.switch17.eth[3].bitrate = 1600Mbps
*.switch17.eth[4].bitrate = 1800Mbps
*.switch17.eth[5].bitrate = 1500Mbps
*.switch17.eth[6].bitrate = 1900Mbps
*.switch17.eth[7].bitrate = 1500Mbps
*.switch17.eth[8].bitrate = 2100Mbps
*.switch17.eth[9].bitrate = 1200Mbps
*.switch17.eth[10].bitrate = 2400Mbps
*.switch17.eth[11].bitrate = 1700Mbps
*.switch17.eth[12].bitrate = 1500Mbps
*.switch17.eth[13].bitrate = 1300Mbps
*.switch17.eth[14].bitrate = 1500Mbps
*.switch17.eth[15].bitrate = 1200Mbps
*.switch17.eth[16].bitrate = 1700Mbps
*.switch17.eth[17].bitrate = 2300Mbps
*.switch17.eth[18].bitrate = 1300Mbps
*.switch17.eth[19].bitrate = 1700Mbps
*.switch17.eth[20].bitrate = 1600Mbps
*.host18.eth[0].bitrate = 1000Mbps
*.switch18.eth[0].bitrate = 1000Mbps
*.switch18.eth[1].bitrate = 2200Mbps
*.switch18.eth[2].bitrate = 2300Mbps
*.switch18.eth[3].bitrate = 2400Mbps
*.switch18.eth[4].bitrate = 1200Mbps
*.switch18.eth[5].bitrate = 1700Mbps
*.switch18.eth[6].bitrate = 1900Mbps
*.switch18.eth[7].bitrate = 1500Mbps
*.switch18.eth[8].bitrate = 2400Mbps
*.switch18.eth[9].bitrate = 1900Mbps
*.switch18.eth[10].bitrate = 1800Mbps
*.switch18.eth[11].bitrate = 1800Mbps
*.switch18.eth[12].bitrate = 1900Mbps
*.switch18.eth[13].bitrate = 2200Mbps
*.switch18.eth[14].bitrate = 1800Mbps
*.switch18.eth[15].bitrate = 1300Mbps
*.switch18.eth[16].bitrate = 1200Mbps
*.switch18.eth[17].bitrate = 2400Mbps
*.switch18.eth[18].bitrate = 2400Mbps
*.switch18.eth[19].bitrate = 2400Mbps
*.switch18.eth[20].bitrate = 1200Mbps
*.switch18.eth[21].bitrate = 2300Mbps
*.switch18.eth[22].bitrate = 1600Mbps
*.switch18.eth[23].bitrate = 1900Mbps
*.switch18.eth[24].bitrate = 1800Mbps
*.switch18.eth[25].bitrate = 1600Mbps
*.switch18.eth[26].bitrate = 1700Mbps
*.switch18.eth[27].bitrate = 1500Mbps
*.host19.eth[0].bitrate = 1000Mbps
*.switch19.eth[0].bitrate = 1000Mbps
*.switch19.eth[1].bitrate = 1200Mbps
*.switch19.eth[2].bitrate = 2100Mbps
*.switch19.eth[3].bitrate = 1700Mbps
*.switch19.eth[4].bitrate = 1400Mbps
*.switch19.eth[5].bitrate = 1300Mbps
*.switch19.eth[6].bitrate = 1600Mbps
*.switch19.eth[7].bitrate = 1500Mbps
*.switch19.eth[8].bitrate = 1300Mbps
*.switch19.eth[9].bitrate = 1800Mbps
*.switch19.eth[10].bitrate = 2000Mbps
*.switch19.eth[11].bitrate = 1700Mbps
*.switch19.eth[12].bitrate = 1700Mbps
*.switch19.eth[13].bitrate = 1900Mbps
*.switch19.eth[14].bitrate = 1300Mbps
*.switch19.eth[15].bitrate = 1500Mbps
*.host0.numApps = 14
*.host0.app[0].typename = "UdpBasicApp"
*.host0.app[0].destAddresses = "host13"
*.host0.app[0].source.packetNameFormat = "%M-%m-%c"
*.host0.app[0].source.displayStringTextFormat = "sent %p pk (%l)"
*.host0.app[0].messageLength = 13B
*.host0.app[0].sendInterval = 1ms
*.host0.app[0].startTime = 4ms
*.host0.app[0].stopTime = 6ms
*.host0.app[0].display-name = "type2_0"
*.host0.app[0].destPort = 1000
*.host0.app[1].typename = "UdpBasicApp"
*.host0.app[1].destAddresses = "host13"
*.host0.app[1].source.packetNameFormat = "%M-%m-%c"
*.host0.app[1].source.displayStringTextFormat = "sent %p pk (%l)"
*.host0.app[1].messageLength = 13B
*.host0.app[1].sendInterval = 1ms
*.host0.app[1].startTime = 12ms
*.host0.app[1].stopTime = 28ms
*.host0.app[1].display-name = "type2_0"
*.host0.app[1].destPort = 1000
*.host0.app[2].typename = "UdpBasicApp"
*.host0.app[2].destAddresses = "host13"
*.host0.app[2].source.packetNameFormat = "%M-%m-%c"
*.host0.app[2].source.displayStringTextFormat = "sent %p pk (%l)"
*.host0.app[2].messageLength = 13B
*.host0.app[2].sendInterval = 1ms
*.host0.app[2].startTime = 31ms
*.host0.app[2].stopTime = 44ms
*.host0.app[2].display-name = "type2_0"
*.host0.app[2].destPort = 1000
*.host0.app[3].typename = "UdpBasicApp"
*.host0.app[3].destAddresses = "host13"
*.host0.app[3].source.packetNameFormat = "%M-%m-%c"
*.host0.app[3].source.displayStringTextFormat = "sent %p pk (%l)"
*.host0.app[3].messageLength = 13B
*.host0.app[3].sendInterval = 1ms
*.host0.app[3].startTime = 49ms
*.host0.app[3].stopTime = 51ms
*.host0.app[3].display-name = "type2_0"
*.host0.app[3].destPort = 1000
*.host0.app[4].typename = "UdpBasicApp"
*.host0.app[4].destAddresses = "host13"
*.host0.app[4].source.packetNameFormat = "%M-%m-%c"
*.host0.app[4].source.displayStringTextFormat = "sent %p pk (%l)"
*.host0.app[4].messageLength = 13B
*.host0.app[4].sendInterval = 1ms
*.host0.app[4].startTime = 56ms
*.host0.app[4].stopTime = 91ms
*.host0.app[4].display-name = "type2_0"
*.host0.app[4].destPort = 1000
*.host0.app[5].typename = "UdpBasicApp"
*.host0.app[5].destAddresses = "host13"
*.host0.app[5].source.packetNameFormat = "%M-%m-%c"
*.host0.app[5].source.displayStringTextFormat = "sent %p pk (%l)"
*.host0.app[5].messageLength = 13B
*.host0.app[5].sendInterval = 1ms
*.host0.app[5].startTime = 92ms
*.host0.app[5].stopTime = 100ms
*.host0.app[5].display-name = "type2_0"
*.host0.app[5].destPort = 1000
*.host0.app[6].typename = "UdpSinkApp"
*.host0.app[6].io.localPort = 1000
*.host0.app[7].typename = "UdpBasicApp"
*.host0.app[7].destAddresses = "host14"
*.host0.app[7].source.packetNameFormat = "%M-%m-%c"
*.host0.app[7].source.displayStringTextFormat = "sent %p pk (%l)"
*.host0.app[7].messageLength = 14B
*.host0.app[7].sendInterval = 1ms
*.host0.app[7].startTime = 4ms
*.host0.app[7].stopTime = 6ms
*.host0.app[7].display-name = "type2_10"
*.host0.app[7].destPort = 1002
*.host0.app[8].typename = "UdpBasicApp"
*.host0.app[8].destAddresses = "host14"
*.host0.app[8].source.packetNameFormat = "%M-%m-%c"
*.host0.app[8].source.displayStringTextFormat = "sent %p pk (%l)"
*.host0.app[8].messageLength = 14B
*.host0.app[8].sendInterval = 1ms
*.host0.app[8].startTime = 31ms
*.host0.app[8].stopTime = 37ms
*.host0.app[8].display-name = "type2_10"
*.host0.app[8].destPort = 1002
*.host0.app[9].typename = "UdpBasicApp"
*.host0.app[9].destAddresses = "host14"
*.host0.app[9].source.packetNameFormat = "%M-%m-%c"
*.host0.app[9].source.displayStringTextFormat = "sent %p pk (%l)"
*.host0.app[9].messageLength = 14B
*.host0.app[9].sendInterval = 1ms
*.host0.app[9].startTime = 40ms
*.host0.app[9].stopTime = 44ms
*.host0.app[9].display-name = "type2_10"
*.host0.app[9].destPort = 1002
*.host0.app[10].typename = "UdpBasicApp"
*.host0.app[10].destAddresses = "host14"
*.host0.app[10].source.packetNameFormat = "%M-%m-%c"
*.host0.app[10].source.displayStringTextFormat = "sent %p pk (%l)"
*.host0.app[10].messageLength = 14B
*.host0.app[10].sendInterval = 1ms
*.host0.app[10].startTime = 45ms
*.host0.app[10].stopTime = 52ms
*.host0.app[10].display-name = "type2_10"
*.host0.app[10].destPort = 1002
*.host0.app[11].typename = "UdpBasicApp"
*.host0.app[11].destAddresses = "host14"
*.host0.app[11].source.packetNameFormat = "%M-%m-%c"
*.host0.app[11].source.displayStringTextFormat = "sent %p pk (%l)"
*.host0.app[11].messageLength = 14B
*.host0.app[11].sendInterval = 1ms
*.host0.app[11].startTime = 55ms
*.host0.app[11].stopTime = 56ms
*.host0.app[11].display-name = "type2_10"
*.host0.app[11].destPort = 1002
*.host0.app[12].typename = "UdpBasicApp"
*.host0.app[12].destAddresses = "host14"
*.host0.app[12].source.packetNameFormat = "%M-%m-%c"
*.host0.app[12].source.displayStringTextFormat = "sent %p pk (%l)"
*.host0.app[12].messageLength = 14B
*.host0.app[12].sendInterval = 1ms
*.host0.app[12].startTime = 84ms
*.host0.app[12].stopTime = 90ms
*.host0.app[12].display-name = "type2_10"
*.host0.app[12].destPort = 1002
*.host0.app[13].typename = "UdpBasicApp"
*.host0.app[13].destAddresses = "host14"
*.host0.app[13].source.packetNameFormat = "%M-%m-%c"
*.host0.app[13].source.displayStringTextFormat = "sent %p pk (%l)"
*.host0.app[13].messageLength = 14B
*.host0.app[13].sendInterval = 1ms
*.host0.app[13].startTime = 95ms
*.host0.app[13].stopTime = 100ms
*.host0.app[13].display-name = "type2_10"
*.host0.app[13].destPort = 1002
*.host1.numApps = 0
*.host2.numApps = 10
*.host2.app[0].typename = "UdpSinkApp"
*.host2.app[0].io.localPort = 1000
*.host2.app[1].typename = "UdpBasicApp"
*.host2.app[1].destAddresses = "host17"
*.host2.app[1].source.packetNameFormat = "%M-%m-%c"
*.host2.app[1].source.displayStringTextFormat = "sent %p pk (%l)"
*.host2.app[1].messageLength = 23B
*.host2.app[1].sendInterval = 1ms
*.host2.app[1].startTime = 1ms
*.host2.app[1].stopTime = 27ms
*.host2.app[1].display-name = "type2_15"
*.host2.app[1].destPort = 1001
*.host2.app[2].typename = "UdpBasicApp"
*.host2.app[2].destAddresses = "host17"
*.host2.app[2].source.packetNameFormat = "%M-%m-%c"
*.host2.app[2].source.displayStringTextFormat = "sent %p pk (%l)"
*.host2.app[2].messageLength = 23B
*.host2.app[2].sendInterval = 1ms
*.host2.app[2].startTime = 29ms
*.host2.app[2].stopTime = 30ms
*.host2.app[2].display-name = "type2_15"
*.host2.app[2].destPort = 1001
*.host2.app[3].typename = "UdpBasicApp"
*.host2.app[3].destAddresses = "host17"
*.host2.app[3].source.packetNameFormat = "%M-%m-%c"
*.host2.app[3].source.displayStringTextFormat = "sent %p pk (%l)"
*.host2.app[3].messageLength = 23B
*.host2.app[3].sendInterval = 1ms
*.host2.app[3].startTime = 33ms
*.host2.app[3].stopTime = 41ms
*.host2.app[3].display-name = "type2_15"
*.host2.app[3].destPort = 1001
*.host2.app[4].typename = "UdpBasicApp"
*.host2.app[4].destAddresses = "host17"
*.host2.app[4].source.packetNameFormat = "%M-%m-%c"
*.host2.app[4].source.displayStringTextFormat = "sent %p pk (%l)"
*.host2.app[4].messageLength = 23B
*.host2.app[4].sendInterval = 1ms
*.host2.app[4].startTime = 45ms
*.host2.app[4].stopTime = 49ms
*.host2.app[4].display-name = "type2_15"
*.host2.app[4].destPort = 1001
*.host2.app[5].typename = "UdpBasicApp"
*.host2.app[5].destAddresses = "host17"
*.host2.app[5].source.packetNameFormat = "%M-%m-%c"
*.host2.app[5].source.displayStringTextFormat = "sent %p pk (%l)"
*.host2.app[5].messageLength = 23B
*.host2.app[5].sendInterval = 1ms
*.host2.app[5].startTime = 50ms
*.host2.app[5].stopTime = 55ms
*.host2.app[5].display-name = "type2_15"
*.host2.app[5].destPort = 1001
*.host2.app[6].typename = "UdpBasicApp"
*.host2.app[6].destAddresses = "host17"
*.host2.app[6].source.packetNameFormat = "%M-%m-%c"
*.host2.app[6].source.displayStringTextFormat = "sent %p pk (%l)"
*.host2.app[6].messageLength = 23B
*.host2.app[6].sendInterval = 1ms
*.host2.app[6].startTime = 57ms
*.host2.app[6].stopTime = 60ms
*.host2.app[6].display-name = "type2_15"
*.host2.app[6].destPort = 1001
*.host2.app[7].typename = "UdpBasicApp"
*.host2.app[7].destAddresses = "host17"
*.host2.app[7].source.packetNameFormat = "%M-%m-%c"
*.host2.app[7].source.displayStringTextFormat = "sent %p pk (%l)"
*.host2.app[7].messageLength = 23B
*.host2.app[7].sendInterval = 1ms
*.host2.app[7].startTime = 62ms
*.host2.app[7].stopTime = 67ms
*.host2.app[7].display-name = "type2_15"
*.host2.app[7].destPort = 1001
*.host2.app[8].typename = "UdpBasicApp"
*.host2.app[8].destAddresses = "host17"
*.host2.app[8].source.packetNameFormat = "%M-%m-%c"
*.host2.app[8].source.displayStringTextFormat = "sent %p pk (%l)"
*.host2.app[8].messageLength = 23B
*.host2.app[8].sendInterval = 1ms
*.host2.app[8].startTime = 69ms
*.host2.app[8].stopTime = 90ms
*.host2.app[8].display-name = "type2_15"
*.host2.app[8].destPort = 1001
*.host2.app[9].typename = "UdpBasicApp"
*.host2.app[9].destAddresses = "host17"
*.host2.app[9].source.packetNameFormat = "%M-%m-%c"
*.host2.app[9].source.displayStringTextFormat = "sent %p pk (%l)"
*.host2.app[9].messageLength = 23B
*.host2.app[9].sendInterval = 1ms
*.host2.app[9].startTime = 95ms
*.host2.app[9].stopTime = 98ms
*.host2.app[9].display-name = "type2_15"
*.host2.app[9].destPort = 1001
*.host3.numApps = 1
*.host3.app[0].typename = "UdpSinkApp"
*.host3.app[0].io.localPort = 1000
*.host4.numApps = 0
*.host5.numApps = 1
*.host5.app[0].typename = "UdpSinkApp"
*.host5.app[0].io.localPort = 1000
*.host6.numApps = 8
*.host6.app[0].typename = "UdpBasicApp"
*.host6.app[0].destAddresses = "host0"
*.host6.app[0].source.packetNameFormat = "%M-%m-%c"
*.host6.app[0].source.displayStringTextFormat = "sent %p pk (%l)"
*.host6.app[0].messageLength = 19B
*.host6.app[0].sendInterval = 1ms
*.host6.app[0].startTime = 2ms
*.host6.app[0].stopTime = 3ms
*.host6.app[0].display-name = "type2_3"
*.host6.app[0].destPort = 1000
*.host6.app[1].typename = "UdpBasicApp"
*.host6.app[1].destAddresses = "host0"
*.host6.app[1].source.packetNameFormat = "%M-%m-%c"
*.host6.app[1].source.displayStringTextFormat = "sent %p pk (%l)"
*.host6.app[1].messageLength = 19B
*.host6.app[1].sendInterval = 1ms
*.host6.app[1].startTime = 16ms
*.host6.app[1].stopTime = 18ms
*.host6.app[1].display-name = "type2_3"
*.host6.app[1].destPort = 1000
*.host6.app[2].typename = "UdpBasicApp"
*.host6.app[2].destAddresses = "host0"
*.host6.app[2].source.packetNameFormat = "%M-%m-%c"
*.host6.app[2].source.displayStringTextFormat = "sent %p pk (%l)"
*.host6.app[2].messageLength = 19B
*.host6.app[2].sendInterval = 1ms
*.host6.app[2].startTime = 20ms
*.host6.app[2].stopTime = 24ms
*.host6.app[2].display-name = "type2_3"
*.host6.app[2].destPort = 1000
*.host6.app[3].typename = "UdpBasicApp"
*.host6.app[3].destAddresses = "host0"
*.host6.app[3].source.packetNameFormat = "%M-%m-%c"
*.host6.app[3].source.displayStringTextFormat = "sent %p pk (%l)"
*.host6.app[3].messageLength = 19B
*.host6.app[3].sendInterval = 1ms
*.host6.app[3].startTime = 28ms
*.host6.app[3].stopTime = 39ms
*.host6.app[3].display-name = "type2_3"
*.host6.app[3].destPort = 1000
*.host6.app[4].typename = "UdpBasicApp"
*.host6.app[4].destAddresses = "host0"
*.host6.app[4].source.packetNameFormat = "%M-%m-%c"
*.host6.app[4].source.displayStringTextFormat = "sent %p pk (%l)"
*.host6.app[4].messageLength = 19B
*.host6.app[4].sendInterval = 1ms
*.host6.app[4].startTime = 48ms
*.host6.app[4].stopTime = 53ms
*.host6.app[4].display-name = "type2_3"
*.host6.app[4].destPort = 1000
*.host6.app[5].typename = "UdpBasicApp"
*.host6.app[5].destAddresses = "host0"
*.host6.app[5].source.packetNameFormat = "%M-%m-%c"
*.host6.app[5].source.displayStringTextFormat = "sent %p pk (%l)"
*.host6.app[5].messageLength = 19B
*.host6.app[5].sendInterval = 1ms
*.host6.app[5].startTime = 62ms
*.host6.app[5].stopTime = 67ms
*.host6.app[5].display-name = "type2_3"
*.host6.app[5].destPort = 1000
*.host6.app[6].typename = "UdpBasicApp"
*.host6.app[6].destAddresses = "host0"
*.host6.app[6].source.packetNameFormat = "%M-%m-%c"
*.host6.app[6].source.displayStringTextFormat = "sent %p pk (%l)"
*.host6.app[6].messageLength = 19B
*.host6.app[6].sendInterval = 1ms
*.host6.app[6].startTime = 71ms
*.host6.app[6].stopTime = 100ms
*.host6.app[6].display-name = "type2_3"
*.host6.app[6].destPort = 1000
*.host6.app[7].typename = "UdpSinkApp"
*.host6.app[7].io.localPort = 1000
*.host7.numApps = 1
*.host7.app[0].typename = "UdpSinkApp"
*.host7.app[0].io.localPort = 1000
*.host8.numApps = 1
*.host8.app[0].typename = "UdpSinkApp"
*.host8.app[0].io.localPort = 1000
*.host9.numApps = 10
*.host9.app[0].typename = "UdpSinkApp"
*.host9.app[0].io.localPort = 1000
*.host9.app[1].typename = "UdpBasicApp"
*.host9.app[1].destAddresses = "host3"
*.host9.app[1].source.packetNameFormat = "%M-%m-%c"
*.host9.app[1].source.displayStringTextFormat = "sent %p pk (%l)"
*.host9.app[1].messageLength = 17B
*.host9.app[1].sendInterval = 1ms
*.host9.app[1].startTime = 0ms
*.host9.app[1].stopTime = 9ms
*.host9.app[1].display-name = "type2_6"
*.host9.app[1].destPort = 1000
*.host9.app[2].typename = "UdpBasicApp"
*.host9.app[2].destAddresses = "host3"
*.host9.app[2].source.packetNameFormat = "%M-%m-%c"
*.host9.app[2].source.displayStringTextFormat = "sent %p pk (%l)"
*.host9.app[2].messageLength = 17B
*.host9.app[2].sendInterval = 1ms
*.host9.app[2].startTime = 36ms
*.host9.app[2].stopTime = 93ms
*.host9.app[2].display-name = "type2_6"
*.host9.app[2].destPort = 1000
*.host9.app[3].typename = "UdpBasicApp"
*.host9.app[3].destAddresses = "host3"
*.host9.app[3].source.packetNameFormat = "%M-%m-%c"
*.host9.app[3].source.displayStringTextFormat = "sent %p pk (%l)"
*.host9.app[3].messageLength = 17B
*.host9.app[3].sendInterval = 1ms
*.host9.app[3].startTime = 96ms
*.host9.app[3].stopTime = 100ms
*.host9.app[3].display-name = "type2_6"
*.host9.app[3].destPort = 1000
*.host9.app[4].typename = "UdpBasicApp"
*.host9.app[4].destAddresses = "host12"
*.host9.app[4].source.packetNameFormat = "%M-%m-%c"
*.host9.app[4].source.displayStringTextFormat = "sent %p pk (%l)"
*.host9.app[4].messageLength = 16B