[General]
network = TSN_multipath
sim-time-limit = 100ms
*.macForwardingTableConfigurator.typename = ""
*.*.hasStreamRedundancy = true
*.*.bridging.streamRelay.typename = "StreamRelayLayer"
*.*.bridging.streamCoder.typename = "StreamCoderLayer"
*.streamRedundancyConfigurator.typename = "StreamRedundancyConfigurator"
*.host0.eth[0].bitrate = 1000Mbps
*.switch0.eth[0].bitrate = 1000Mbps
*.switch0.eth[1].bitrate = 1800Mbps
*.switch0.eth[2].bitrate = 2200Mbps
*.switch0.eth[3].bitrate = 1700Mbps
*.switch0.eth[4].bitrate = 2400Mbps
*.switch0.eth[5].bitrate = 1700Mbps
*.switch0.eth[6].bitrate = 2100Mbps
*.switch0.eth[7].bitrate = 2100Mbps
*.host1.eth[0].bitrate = 1000Mbps
*.switch1.eth[0].bitrate = 1000Mbps
*.switch1.eth[1].bitrate = 1200Mbps
*.switch1.eth[2].bitrate = 2300Mbps
*.switch1.eth[3].bitrate = 2200Mbps
*.switch1.eth[4].bitrate = 1800Mbps
*.switch1.eth[5].bitrate = 2300Mbps
*.switch1.eth[6].bitrate = 1900Mbps
*.switch1.eth[7].bitrate = 1900Mbps
*.switch1.eth[8].bitrate = 1200Mbps
*.switch1.eth[9].bitrate = 1800Mbps
*.switch1.eth[10].bitrate = 2300Mbps
*.host2.eth[0].bitrate = 1000Mbps
*.switch2.eth[0].bitrate = 1000Mbps
*.switch2.eth[1].bitrate = 1200Mbps
*.switch2.eth[2].bitrate = 2400Mbps
*.switch2.eth[3].bitrate = 1900Mbps
*.switch2.eth[4].bitrate = 1800Mbps
*.switch2.eth[5].bitrate = 1400Mbps
*.switch2.eth[6].bitrate = 1900Mbps
*.switch2.eth[7].bitrate = 1700Mbps
*.switch2.eth[8].bitrate = 1900Mbps
*.switch2.eth[9].bitrate = 2100Mbps
*.switch2.eth[10].bitrate = 1300Mbps
*.host3.eth[0].bitrate = 1000Mbps
*.switch3.eth[0].bitrate = 1000Mbps
*.switch3.eth[1].bitrate = 2300Mbps
*.switch3.eth[2].bitrate = 1200Mbps
*.switch3.eth[3].bitrate = 2100Mbps
*.switch3.eth[4].bitrate = 2400Mbps
*.switch3.eth[5].bitrate = 1200Mbps
*.switch3.eth[6].bitrate = 2400Mbps
*.switch3.eth[7].bitrate = 2200Mbps
*.switch3.eth[8].bitrate = 2400Mbps
*.switch3.eth[9].bitrate = 2100Mbps
*.switch3.eth[10].bitrate = 2100Mbps
*.switch3.eth[11].bitrate = 1300Mbps
*.host4.eth[0].bitrate = 1000Mbps
*.switch4.eth[0].bitrate = 1000Mbps
*.switch4.eth[1].bitrate = 1800Mbps
*.switch4.eth[2].bitrate = 2200Mbps
*.switch4.eth[3].bitrate = 2400Mbps
*.switch4.eth[4].bitrate = 1700Mbps
*.switch4.eth[5].bitrate = 2100Mbps
*.switch4.eth[6].bitrate = 2100Mbps
*.switch4.eth[7].bitrate = 2000Mbps
*.switch4.eth[8].bitrate = 2300Mbps
*.switch4.eth[9].bitrate = 1600Mbps
*.host5.eth[0].bitrate = 1000Mbps
*.switch5.eth[0].bitrate = 1000Mbps
*.switch5.eth[1].bitrate = 1800Mbps
*.switch5.eth[2].bitrate = 1800Mbps
*.switch5.eth[3].bitrate = 1200Mbps
*.switch5.eth[4].bitrate = 2100Mbps
*.switch5.eth[5].bitrate = 1300Mbps
*.switch5.eth[6].bitrate = 2300Mbps
*.switch5.eth[7].bitrate = 1800Mbps
*.switch5.eth[8].bitrate = 2400Mbps
*.switch5.eth[9].bitrate = 1900Mbps
*.switch5.eth[10].bitrate = 1800Mbps
*.host6.eth[0].bitrate = 1000Mbps
*.switch6.eth[0].bitrate = 1000Mbps
*.switch6.eth[1].bitrate = 2200Mbps
*.switch6.eth[2].bitrate = 2300Mbps
*.switch6.eth[3].bitrate = 1400Mbps
*.switch6.eth[4].bitrate = 2400Mbps
*.switch6.eth[5].bitrate = 1800Mbps
*.switch6.eth[6].bitrate = 1800Mbps
*.switch6.eth[7].bitrate = 1800Mbps
*.switch6.eth[8].bitrate = 2100Mbps
*.host7.eth[0].bitrate = 1000Mbps
*.switch7.eth[0].bitrate = 1000Mbps
*.switch7.eth[1].bitrate = 1900Mbps
*.switch7.eth[2].bitrate = 2200Mbps
*.switch7.eth[3].bitrate = 2000Mbps
*.switch7.eth[4].bitrate = 2400Mbps
*.switch7.eth[5].bitrate = 1800Mbps
*.switch7.eth[6].bitrate = 2100Mbps
*.switch7.eth[7].bitrate = 2300Mbps
*.switch7.eth[8].bitrate = 1600Mbps
*.host8.eth[0].bitrate = 1000Mbps
*.switch8.eth[0].bitrate = 1000Mbps
*.switch8.eth[1].bitrate = 1700Mbps
*.switch8.eth[2].bitrate = 1700Mbps
*.switch8.eth[3].bitrate = 2400Mbps
*.switch8.eth[4].bitrate = 1900Mbps
*.switch8.eth[5].bitrate = 2100Mbps
*.host9.eth[0].bitrate = 1000Mbps
*.switch9.eth[0].bitrate = 1000Mbps
*.switch9.eth[1].bitrate = 1900Mbps
*.switch9.eth[2].bitrate = 1900Mbps
*.switch9.eth[3].bitrate = 2100Mbps
*.switch9.eth[4].bitrate = 1800Mbps
*.switch9.eth[5].bitrate = 2100Mbps
*.switch9.eth[6].bitrate = 1300Mbps
*.host0.numApps = 16
*.host0.app[0].typename = "UdpSinkApp"
*.host0.app[0].io.localPort = 1000
*.host0.app[1].typename = "UdpBasicApp"
*.host0.app[1].destAddresses = "host3"
*.host0.app[1].source.packetNameFormat = "%M-%m-%c"
*.host0.app[1].source.displayStringTextFormat = "sent %p pk (%l)"
*.host0.app[1].messageLength = 16B
*.host0.app[1].sendInterval = 1ms
*.host0.app[1].startTime = 5ms
*.host0.app[1].stopTime = 6ms
*.host0.app[1].display-name = "type2_5"
*.host0.app[1].destPort = 1001
*.host0.app[2].typename = "UdpBasicApp"
*.host0.app[2].destAddresses = "host3"
*.host0.app[2].source.packetNameFormat = "%M-%m-%c"
*.host0.app[2].source.displayStringTextFormat = "sent %p pk (%l)"
*.host0.app[2].messageLength = 16B
*.host0.app[2].sendInterval = 1ms
*.host0.app[2].startTime = 19ms
*.host0.app[2].stopTime = 27ms
*.host0.app[2].display-name = "type2_5"
*.host0.app[2].destPort = 1001
*.host0.app[3].typename = "UdpBasicApp"
*.host0.app[3].destAddresses = "host3"
*.host0.app[3].source.packetNameFormat = "%M-%m-%c"
*.host0.app[3].source.displayStringTextFormat = "sent %p pk (%l)"
*.host0.app[3].messageLength = 16B
*.host0.app[3].sendInterval = 1ms
*.host0.app[3].startTime = 31ms
*.host0.app[3].stopTime = 34ms
*.host0.app[3].display-name = "type2_5"
*.host0.app[3].destPort = 1001
*.host0.app[4].typename = "UdpBasicApp"
*.host0.app[4].destAddresses = "host3"
*.host0.app[4].source.packetNameFormat = "%M-%m-%c"
*.host0.app[4].source.displayStringTextFormat = "sent %p pk (%l)"
*.host0.app[4].messageLength = 16B
*.host0.app[4].sendInterval = 1ms
*.host0.app[4].startTime = 35ms
*.host0.app[4].stopTime = 39ms
*.host0.app[4].display-name = "type2_5"
*.host0.app[4].destPort = 1001
*.host0.app[5].typename = "UdpBasicApp"
*.host0.app[5].destAddresses = "host3"
*.host0.app[5].source.packetNameFormat = "%M-%m-%c"
*.host0.app[5].source.displayStringTextFormat = "sent %p pk (%l)"
*.host0.app[5].messageLength = 16B
*.host0.app[5].sendInterval = 1ms
*.host0.app[5].startTime = 41ms
*.host0.app[5].stopTime = 42ms
*.host0.app[5].display-name = "type2_5"
*.host0.app[5].destPort = 1001
*.host0.app[6].typename = "UdpBasicApp"
*.host0.app[6].destAddresses = "host3"
*.host0.app[6].source.packetNameFormat = "%M-%m-%c"
*.host0.app[6].source.displayStringTextFormat = "sent %p pk (%l)"
*.host0.app[6].messageLength = 16B
*.host0.app[6].sendInterval = 1ms
*.host0.app[6].startTime = 48ms
*.host0.app[6].stopTime = 59ms
*.host0.app[6].display-name = "type2_5"
*.host0.app[6].destPort = 1001
*.host0.app[7].typename = "UdpBasicApp"
*.host0.app[7].destAddresses = "host3"
*.host0.app[7].source.packetNameFormat = "%M-%m-%c"
*.host0.app[7].source.displayStringTextFormat = "sent %p pk (%l)"
*.host0.app[7].messageLength = 16B
*.host0.app[7].sendInterval = 1ms
*.host0.app[7].startTime = 64ms
*.host0.app[7].stopTime = 72ms
*.host0.app[7].display-name = "type2_5"
*.host0.app[7].destPort = 1001
*.host0.app[8].typename = "UdpBasicApp"
*.host0.app[8].destAddresses = "host3"
*.host0.app[8].source.packetNameFormat = "%M-%m-%c"
*.host0.app[8].source.displayStringTextFormat = "sent %p pk (%l)"
*.host0.app[8].messageLength = 16B
*.host0.app[8].sendInterval = 1ms
*.host0.app[8].startTime = 83ms
*.host0.app[8].stopTime = 84ms
*.host0.app[8].display-name = "type2_5"
*.host0.app[8].destPort = 1001
*.host0.app[9].typename = "UdpBasicApp"
*.host0.app[9].destAddresses = "host3"
*.host0.app[9].source.packetNameFormat = "%M-%m-%c"
*.host0.app[9].source.displayStringTextFormat = "sent %p pk (%l)"
*.host0.app[9].messageLength = 16B
*.host0.app[9].sendInterval = 1ms
*.host0.app[9].startTime = 96ms
*.host0.app[9].stopTime = 100ms
*.host0.app[9].display-name = "type2_5"
*.host0.app[9].destPort = 1001
*.host0.app[10].typename = "UdpSinkApp"
*.host0.app[10].io.localPort = 1001
*.host0.app[11].typename = "UdpSinkApp"
*.host0.app[11].io.localPort = 1002
*.host0.app[12].typename = "UdpBasicApp"
*.host0.app[12].destAddresses = "host5"
*.host0.app[12].source.packetNameFormat = "%M-%m-%c"
*.host0.app[12].source.displayStringTextFormat = "sent %p pk (%l)"
*.host0.app[12].messageLength = 13B
*.host0.app[12].sendInterval = 1ms
*.host0.app[12].startTime = 1ms
*.host0.app[12].stopTime = 27ms
*.host0.app[12].display-name = "type2_10"
*.host0.app[12].destPort = 1002
*.host0.app[13].typename = "UdpBasicApp"
*.host0.app[13].destAddresses = "host5"
*.host0.app[13].source.packetNameFormat = "%M-%m-%c"
*.host0.app[13].source.displayStringTextFormat = "sent %p pk (%l)"
*.host0.app[13].messageLength = 13B
*.host0.app[13].sendInterval = 1ms
*.host0.app[13].startTime = 43ms
*.host0.app[13].stopTime = 58ms
*.host0.app[13].display-name = "type2_10"
*.host0.app[13].destPort = 1002
*.host0.app[14].typename = "UdpBasicApp"
*.host0.app[14].destAddresses = "host5"
*.host0.app[14].source.packetNameFormat = "%M-%m-%c"
*.host0.app[14].source.displayStringTextFormat = "sent %p pk (%l)"
*.host0.app[14].messageLength = 13B
*.host0.app[14].sendInterval = 1ms
*.host0.app[14].startTime = 67ms
*.host0.app[14].stopTime = 80ms
*.host0.app[14].display-name = "type2_10"
*.host0.app[14].destPort = 1002
*.host0.app[15].typename = "UdpBasicApp"
*.host0.app[15].destAddresses = "host5"
*.host0.app[15].source.packetNameFormat = "%M-%m-%c"
*.host0.app[15].source.displayStringTextFormat = "sent %p pk (%l)"
*.host0.app[15].messageLength = 13B
*.host0.app[15].sendInterval = 1ms
*.host0.app[15].startTime = 91ms
*.host0.app[15].stopTime = 99ms
*.host0.app[15].display-name = "type2_10"
*.host0.app[15].destPort = 1002
*.host1.numApps = 34
*.host1.app[0].typename = "UdpBasicApp"
*.host1.app[0].destAddresses = "host2"
*.host1.app[0].source.packetNameFormat = "%M-%m-%c"
*.host1.app[0].source.displayStringTextFormat = "sent %p pk (%l)"
*.host1.app[0].messageLength = 13B
*.host1.app[0].sendInterval = 1ms
*.host1.app[0].startTime = 19ms
*.host1.app[0].stopTime = 22ms
*.host1.app[0].display-name = "type2_0"
*.host1.app[0].destPort = 1000
*.host1.app[1].typename = "UdpBasicApp"
*.host1.app[1].destAddresses = "host2"
*.host1.app[1].source.packetNameFormat = "%M-%m-%c"
*.host1.app[1].source.displayStringTextFormat = "sent %p pk (%l)"
*.host1.app[1].messageLength = 13B
*.host1.app[1].sendInterval = 1ms
*.host1.app[1].startTime = 26ms
*.host1.app[1].stopTime = 28ms
*.host1.app[1].display-name = "type2_0"
*.host1.app[1].destPort = 1000
*.host1.app[2].typename = "UdpBasicApp"
*.host1.app[2].destAddresses = "host2"
*.host1.app[2].source.packetNameFormat = "%M-%m-%c"
*.host1.app[2].source.displayStringTextFormat = "sent %p pk (%l)"
*.host1.app[2].messageLength = 13B
*.host1.app[2].sendInterval = 1ms
*.host1.app[2].startTime = 29ms
*.host1.app[2].stopTime = 39ms
*.host1.app[2].display-name = "type2_0"
*.host1.app[2].destPort = 1000
*.host1.app[3].typename = "UdpBasicApp"
*.host1.app[3].destAddresses = "host2"
*.host1.app[3].source.packetNameFormat = "%M-%m-%c"
*.host1.app[3].source.displayStringTextFormat = "sent %p pk (%l)"
*.host1.app[3].messageLength = 13B
*.host1.app[3].sendInterval = 1ms
*.host1.app[3].startTime = 40ms
*.host1.app[3].stopTime = 47ms
*.host1.app[3].display-name = "type2_0"
*.host1.app[3].destPort = 1000
*.host1.app[4].typename = "UdpBasicApp"
*.host1.app[4].destAddresses = "host2"
*.host1.app[4].source.packetNameFormat = "%M-%m-%c"
*.host1.app[4].source.displayStringTextFormat = "sent %p pk (%l)"
*.host1.app[4].messageLength = 13B
*.host1.app[4].sendInterval = 1ms
*.host1.app[4].startTime = 48ms
*.host1.app[4].stopTime = 54ms
*.host1.app[4].display-name = "type2_0"
*.host1.app[4].destPort = 1000
*.host1.app[5].typename = "UdpBasicApp"
*.host1.app[5].destAddresses = "host2"
*.host1.app[5].source.packetNameFormat = "%M-%m-%c"
*.host1.app[5].source.displayStringTextFormat = "sent %p pk (%l)"
*.host1.app[5].messageLength = 13B
*.host1.app[5].sendInterval = 1ms
*.host1.app[5].startTime = 65ms
*.host1.app[5].stopTime = 66ms
*.host1.app[5].display-name = "type2_0"
*.host1.app[5].destPort = 1000
*.host1.app[6].typename = "UdpBasicApp"
*.host1.app[6].destAddresses = "host2"
*.host1.app[6].source.packetNameFormat = "%M-%m-%c"
*.host1.app[6].source.displayStringTextFormat = "sent %p pk (%l)"
*.host1.app[6].messageLength = 13B
*.host1.app[6].sendInterval = 1ms
*.host1.app[6].startTime = 84ms
*.host1.app[6].stopTime = 86ms
*.host1.app[6].display-name = "type2_0"
*.host1.app[6].destPort = 1000
*.host1.app[7].typename = "UdpBasicApp"
*.host1.app[7].destAddresses = "host2"
*.host1.app[7].source.packetNameFormat = "%M-%m-%c"
*.host1.app[7].source.displayStringTextFormat = "sent %p pk (%l)"
*.host1.app[7].messageLength = 13B
*.host1.app[7].sendInterval = 1ms
*.host1.app[7].startTime = 88ms
*.host1.app[7].stopTime = 89ms
*.host1.app[7].display-name = "type2_0"
*.host1.app[7].destPort = 1000
*.host1.app[8].typename = "UdpBasicApp"
*.host1.app[8].destAddresses = "host2"
*.host1.app[8].source.packetNameFormat = "%M-%m-%c"
*.host1.app[8].source.displayStringTextFormat = "sent %p pk (%l)"
*.host1.app[8].messageLength = 13B
*.host1.app[8].sendInterval = 1ms
*.host1.app[8].startTime = 92ms
*.host1.app[8].stopTime = 95ms
*.host1.app[8].display-name = "type2_0"
*.host1.app[8].destPort = 1000
*.host1.app[9].typename = "UdpBasicApp"
*.host1.app[9].destAddresses = "host2"
*.host1.app[9].source.packetNameFormat = "%M-%m-%c"
*.host1.app[9].source.displayStringTextFormat = "sent %p pk (%l)"
*.host1.app[9].messageLength = 13B
*.host1.app[9].sendInterval = 1ms
*.host1.app[9].startTime = 96ms
*.host1.app[9].stopTime = 100ms
*.host1.app[9].display-name = "type2_0"
*.host1.app[9].destPort = 1000
*.host1.app[10].typename = "UdpSinkApp"
*.host1.app[10].io.localPort = 1000
*.host1.app[11].typename = "UdpBasicApp"
*.host1.app[11].destAddresses = "host8"
*.host1.app[11].source.packetNameFormat = "%M-%m-%c"
*.host1.app[11].source.displayStringTextFormat = "sent %p pk (%l)"
*.host1.app[11].messageLength = 13B
*.host1.app[11].sendInterval = 1ms
*.host1.app[11].startTime = 10ms
*.host1.app[11].stopTime = 16ms
*.host1.app[11].display-name = "type2_4"
*.host1.app[11].destPort = 1000
*.host1.app[12].typename = "UdpBasicApp"
*.host1.app[12].destAddresses = "host8"
*.host1.app[12].source.packetNameFormat = "%M-%m-%c"
*.host1.app[12].source.displayStringTextFormat = "sent %p pk (%l)"
*.host1.app[12].messageLength = 13B
*.host1.app[12].sendInterval = 1ms
*.host1.app[12].startTime = 23ms
*.host1.app[12].stopTime = 26ms
*.host1.app[12].display-name = "type2_4"
*.host1.app[12].destPort = 1000
*.host1.app[13].typename = "UdpBasicApp"
*.host1.app[13].destAddresses = "host8"
*.host1.app[13].source.packetNameFormat = "%M-%m-%c"
*.host1.app[13].source.displayStringTextFormat = "sent %p pk (%l)"
*.host1.app[13].messageLength = 13B
*.host1.app[13].sendInterval = 1ms
*.host1.app[13].startTime = 32ms
*.host1.app[13].stopTime = 47ms
*.host1.app[13].display-name = "type2_4"
*.host1.app[13].destPort = 1000
*.host1.app[14].typename = "UdpBasicApp"
*.host1.app[14].destAddresses = "host8"
*.host1.app[14].source.packetNameFormat = "%M-%m-%c"
*.host1.app[14].source.displayStringTextFormat = "sent %p pk (%l)"
*.host1.app[14].messageLength = 13B
*.host1.app[14].sendInterval = 1ms
*.host1.app[14].startTime = 50ms
*.host1.app[14].stopTime = 54ms
*.host1.app[14].display-name = "type2_4"
*.host1.app[14].destPort = 1000
*.host1.app[15].typename = "UdpBasicApp"
*.host1.app[15].destAddresses = "host8"
*.host1.app[15].source.packetNameFormat = "%M-%m-%c"
*.host1.app[15].source.displayStringTextFormat = "sent %p pk (%l)"
*.host1.app[15].messageLength = 13B
*.host1.app[15].sendInterval = 1ms
*.host1.app[15].startTime = 63ms
*.host1.app[15].stopTime = 69ms
*.host1.app[15].display-name = "type2_4"
*.host1.app[15].destPort = 1000
*.host1.app[16].typename = "UdpBasicApp"
*.host1.app[16].destAddresses = "host8"
*.host1.app[16].source.packetNameFormat = "%M-%m-%c"
*.host1.app[16].source.displayStringTextFormat = "sent %p pk (%l)"
*.host1.app[16].messageLength = 13B
*.host1.app[16].sendInterval = 1ms
*.host1.app[16].startTime = 72ms
*.host1.app[16].stopTime = 74ms
*.host1.app[16].display-name = "type2_4"
*.host1.app[16].destPort = 1000
*.host1.app[17].typename = "UdpBasicApp"
*.host1.app[17].destAddresses = "host8"
*.host1.app[17].source.packetNameFormat = "%M-%m-%c"
*.host1.app[17].source.displayStringTextFormat = "sent %p pk (%l)"
*.host1.app[17].messageLength = 13B
*.host1.app[17].sendInterval = 1ms
*.host1.app[17].startTime = 78ms
*.host1.app[17].stopTime = 82ms
*.host1.app[17].display-name = "type2_4"
*.host1.app[17].destPort = 1000
*.host1.app[18].typename = "UdpBasicApp"
*.host1.app[18].destAddresses = "host8"
*.host1.app[18].source.packetNameFormat = "%M-%m-%c"
*.host1.app[18].source.displayStringTextFormat = "sent %p pk (%l)"
*.host1.app[18].messageLength = 13B
*.host1.app[18].sendInterval = 1ms
*.host1.app[18].startTime = 90ms
*.host1.app[18].stopTime = 92ms
*.host1.app[18].display-name = "type2_4"
*.host1.app[18].destPort = 1000
*.host1.app[19].typename = "UdpBasicApp"
*.host1.app[19].destAddresses = "host0"
*.host1.app[19].source.packetNameFormat = "%M-%m-%c"
*.host1.app[19].source.displayStringTextFormat = "sent %p pk (%l)"
*.host1.app[19].messageLength = 15B
*.host1.app[19].sendInterval = 1ms
*.host1.app[19].startTime = 5ms
*.host1.app[19].stopTime = 6ms
*.host1.app[19].display-name = "type2_6"
*.host1.app[19].destPort = 1001
*.host1.app[20].typename = "UdpBasicApp"
*.host1.app[20].destAddresses = "host0"
*.host1.app[20].source.packetNameFormat = "%M-%m-%c"
*.host1.app[20].source.displayStringTextFormat = "sent %p pk (%l)"
*.host1.app[20].messageLength = 15B
*.host1.app[20].sendInterval = 1ms
*.host1.app[20].startTime = 7ms
*.host1.app[20].stopTime = 8ms
*.host1.app[20].display-name = "type2_6"
*.host1.app[20].destPort = 1001
*.host1.app[21].typename = "UdpBasicApp"
*.host1.app[21].destAddresses = "host0"
*.host1.app[21].source.packetNameFormat = "%M-%m-%c"
*.host1.app[21].source.displayStringTextFormat = "sent %p pk (%l)"
*.host1.app[21].messageLength = 15B
*.host1.app[21].sendInterval = 1ms
*.host1.app[21].startTime = 10ms
*.host1.app[21].stopTime = 24ms
*.host1.app[21].display-name = "type2_6"
*.host1.app[21].destPort = 1001
*.host1.app[22].typename = "UdpBasicApp"
*.host1.app[22].destAddresses = "host0"
*.host1.app[22].source.packetNameFormat = "%M-%m-%c"
*.host1.app[22].source.displayStringTextFormat = "sent %p pk (%l)"
*.host1.app[22].messageLength = 15B
*.host1.app[22].sendInterval = 1ms
*.host1.app[22].startTime = 42ms
*.host1.app[22].stopTime = 51ms
*.host1.app[22].display-name = "type2_6"
*.host1.app[22].destPort = 1001
*.host1.app[23].typename = "UdpBasicApp"
*.host1.app[23].destAddresses = "host0"
*.host1.app[23].source.packetNameFormat = "%M-%m-%c"
*.host1.app[23].source.displayStringTextFormat = "sent %p pk (%l)"
*.host1.app[23].messageLength = 15B
*.host1.app[23].sendInterval = 1ms
*.host1.app[23].startTime = 58ms
*.host1.app[23].stopTime = 60ms
*.host1.app[23].display-name = "type2_6"
*.host1.app[23].destPort = 1001
*.host1.app[24].typename = "UdpBasicApp"
*.host1.app[24].destAddresses = "host0"
*.host1.app[24].source.packetNameFormat = "%M-%m-%c"
*.host1.app[24].source.displayStringTextFormat = "sent %p pk (%l)"
*.host1.app[24].messageLength = 15B
*.host1.app[24].sendInterval = 1ms
*.host1.app[24].startTime = 72ms
*.host1.app[24].stopTime = 75ms
*.host1.app[24].display-name = "type2_6"
*.host1.app[24].destPort = 1001
*.host1.app[25].typename = "UdpBasicApp"
*.host1.app[25].destAddresses = "host0"
*.host1.app[25].source.packetNameFormat = "%M-%m-%c"
*.host1.app[25].source.displayStringTextFormat = "sent %p pk (%l)"
*.host1.app[25].messageLength = 15B
*.host1.app[25].sendInterval = 1ms
*.host1.app[25].startTime = 77ms
*.host1.app[25].stopTime = 81ms
*.host1.app[25].display-name = "type2_6"
*.host1.app[25].destPort = 1001
*.host1.app[26].typename = "UdpBasicApp"
*.host1.app[26].destAddresses = "host0"
*.host1.app[26].source.packetNameFormat = "%M-%m-%c"
*.host1.app[26].source.displayStringTextFormat = "sent %p pk (%l)"
*.host1.app[26].messageLength = 15B
*.host1.app[26].sendInterval = 1ms
*.host1.app[26].startTime = 91ms
*.host1.app[26].stopTime = 98ms
*.host1.app[26].display-name = "type2_6"
*.host1.app[26].destPort = 1001
*.host1.app[27].typename = "UdpBasicApp"
*.host1.app[27].destAddresses = "host3"
*.host1.app[27].source.packetNameFormat = "%M-%m-%c"
*.host1.app[27].source.displayStringTextFormat = "sent %p pk (%l)"
*.host1.app[27].messageLength = 22B
*.host1.app[27].sendInterval = 1ms
*.host1.app[27].startTime = 6ms
*.host1.app[27].stopTime = 17ms
*.host1.app[27].display-name = "type2_7"
*.host1.app[27].destPort = 1002
*.host1.app[28].typename = "UdpBasicApp"
*.host1.app[28].destAddresses = "host3"
*.host1.app[28].source.packetNameFormat = "%M-%m-%c"
*.host1.app[28].source.displayStringTextFormat = "sent %p pk (%l)"
*.host1.app[28].messageLength = 22B
*.host1.app[28].sendInterval = 1ms
*.host1.app[28].startTime = 18ms
*.host1.app[28].stopTime = 19ms
*.host1.app[28].display-name = "type2_7"
*.host1.app[28].destPort = 1002
*.host1.app[29].typename = "UdpBasicApp"
*.host1.app[29].destAddresses = "host3"
*.host1.app[29].source.packetNameFormat = "%M-%m-%c"
*.host1.app[29].source.displayStringTextFormat = "sent %p pk (%l)"
*.host1.app[29].messageLength = 22B
*.host1.app[29].sendInterval = 1ms
*.host1.app[29].startTime = 24ms
*.host1.app[29].stopTime = 27ms
*.host1.app[29].display-name = "type2_7"
*.host1.app[29].destPort = 1002
*.host1.app[30].typename = "UdpBasicApp"
*.host1.app[30].destAddresses = "host3"
*.host1.app[30].source.packetNameFormat = "%M-%m-%c"
*.host1.app[30].source.displayStringTextFormat = "sent %p pk (%l)"
*.host1.app[30].messageLength = 22B
*.host1.app[30].sendInterval = 1ms
*.host1.app[30].startTime = 59ms
*.host1.app[30].stopTime = 69ms
*.host1.app[30].display-name = "type2_7"
*.host1.app[30].destPort = 1002
*.host1.app[31].typename = "UdpBasicApp"
*.host1.app[31].destAddresses = "host3"
*.host1.app[31].source.packetNameFormat = "%M-%m-%c"
*.host1.app[31].source.displayStringTextFormat = "sent %p pk (%l)"
*.host1.app[31].messageLength = 22B
*.host1.app[31].sendInterval = 1ms
*.host1.app[31].startTime = 71ms
*.host1.app[31].stopTime = 77ms
*.host1.app[31].display-name = "type2_7"
*.host1.app[31].destPort = 1002
*.host1.app[32].typename = "UdpBasicApp"
*.host1.app[32].destAddresses = "host3"
*.host1.app[32].source.packetNameFormat = "%M-%m-%c"
*.host1.app[32].source.displayStringTextFormat = "sent %p pk (%l)"
*.host1.app[32].messageLength = 22B
*.host1.app[32].sendInterval = 1ms
*.host1.app[32].startTime = 80ms
*.host1.app[32].stopTime = 100ms
*.host1.app[32].display-name = "type2_7"
*.host1.app[32].destPort = 1002
*.host1.app[33].typename = "UdpSinkApp"
*.host1.app[33].io.localPort = 1001
*.host2.numApps = 2
*.host2.app[0].typename = "UdpSourceApp"
*.host2.app[0].io.destAddress = "host0"
*.host2.app[0].source.packetNameFormat = "%M-%m-%c"
*.host2.app[0].source.displayStringTextFormat = "sent %p pk (%l)"
*.host2.app[0].source.packetLength = 12B
*.host2.app[0].source.productionInterval = 1ms
*.host2.app[0].display-name = "type1_3"
*.host2.app[0].io.destPort = 1000
*.host2.app[1].typename = "UdpSinkApp"
*.host2.app[1].io.localPort = 1000
*.host3.numApps = 13
*.host3.app[0].typename = "UdpSinkApp"
*.host3.app[0].io.localPort = 1000
*.host3.app[1].typename = "UdpBasicApp"
*.host3.app[1].destAddresses = "host4"
*.host3.app[1].source.packetNameFormat = "%M-%m-%c"
*.host3.app[1].source.displayStringTextFormat = "sent %p pk (%l)"
*.host3.app[1].messageLength = 18B
*.host3.app[1].sendInterval = 1ms
*.host3.app[1].startTime = 2ms
*.host3.app[1].stopTime = 5ms
*.host3.app[1].display-name = "type2_2"
*.host3.app[1].destPort = 1000
*.host3.app[2].typename = "UdpBasicApp"
*.host3.app[2].destAddresses = "host4"
*.host3.app[2].source.packetNameFormat = "%M-%m-%c"
*.host3.app[2].source.displayStringTextFormat = "sent %p pk (%l)"
*.host3.app[2].messageLength = 18B
*.host3.app[2].sendInterval = 1ms
*.host3.app[2].startTime = 7ms
*.host3.app[2].stopTime = 8ms
*.host3.app[2].display-name = "type2_2"
*.host3.app[2].destPort = 1000
*.host3.app[3].typename = "UdpBasicApp"
*.host3.app[3].destAddresses = "host4"
*.host3.app[3].source.packetNameFormat = "%M-%m-%c"
*.host3.app[3].source.displayStringTextFormat = "sent %p pk (%l)"
*.host3.app[3].messageLength = 18B
*.host3.app[3].sendInterval = 1ms
*.host3.app[3].startTime = 9ms
*.host3.app[3].stopTime = 12ms
*.host3.app[3].display-name = "type2_2"
*.host3.app[3].destPort = 1000
*.host3.app[4].typename = "UdpBasicApp"
*.host3.app[4].destAddresses = "host4"
*.host3.app[4].source.packetNameFormat = "%M-%m-%c"
*.host3.app[4].source.displayStringTextFormat = "sent %p pk (%l)"
*.host3.app[4].messageLength = 18B
*.host3.app[4].sendInterval = 1ms
*.host3.app[4].startTime = 22ms
*.host3.app[4].stopTime = 23ms
*.host3.app[4].display-name = "type2_2"
*.host3.app[4].destPort = 1000
*.host3.app[5].typename = "UdpBasicApp"
*.host3.app[5].destAddresses = "host4"
*.host3.app[5].source.packetNameFormat = "%M-%m-%c"
*.host3.app[5].source.displayStringTextFormat = "sent %p pk (%l)"
*.host3.app[5].messageLength = 18B
*.host3.app[5].sendInterval = 1ms
*.host3.app[5].startTime = 31ms
*.host3.app[5].stopTime = 36ms
*.host3.app[5].display-name = "type2_2"
*.host3.app[5].destPort = 1000
*.host3.app[6].typename = "UdpBasicApp"
*.host3.app[6].destAddresses = "host4"
*.host3.app[6].source.packetNameFormat = "%M-%m-%c"
*.host3.app[6].source.displayStringTextFormat = "sent %p pk (%l)"
*.host3.app[6].messageLength = 18B
*.host3.app[6].sendInterval = 1ms
*.host3.app[6].startTime = 52ms
*.host3.app[6].stopTime = 60ms
*.host3.app[6].display-name = "type2_2"
*.host3.app[6].destPort = 1000
*.host3.app[7].typename = "UdpBasicApp"
*.host3.app[7].destAddresses = "host4"
*.host3.app[7].source.packetNameFormat = "%M-%m-%c"
*.host3.app[7].source.displayStringTextFormat = "sent %p pk (%l)"
*.host3.app[7].messageLength = 18B
*.host3.app[7].sendInterval = 1ms
*.host3.app[7].startTime = 76ms
*.host3.app[7].stopTime = 79ms
*.host3.app[7].display-name = "type2_2"
*.host3.app[7].destPort = 1000
*.host3.app[8].typename = "UdpBasicApp"
*.host3.app[8].destAddresses = "host4"
*.host3.app[8].source.packetNameFormat = "%M-%m-%c"
*.host3.app[8].source.displayStringTextFormat = "sent %p pk (%l)"
*.host3.app[8].messageLength = 18B
*.host3.app[8].sendInterval = 1ms
*.host3.app[8].startTime = 87ms
*.host3.app[8].stopTime = 91ms
*.host3.app[8].display-name = "type2_2"
*.host3.app[8].destPort = 1000
*.host3.app[9].typename = "UdpBasicApp"
*.host3.app[9].destAddresses = "host4"
*.host3.app[9].source.packetNameFormat = "%M-%m-%c"
*.host3.app[9].source.displayStringTextFormat = "sent %p pk (%l)"
*.host3.app[9].messageLength = 18B
*.host3.app[9].sendInterval = 1ms
*.host3.app[9].startTime = 93ms
*.host3.app[9].stopTime = 100ms
*.host3.app[9].display-name = "type2_2"
*.host3.app[9].destPort = 1000
*.host3.app[10].typename = "UdpSinkApp"
*.host3.app[10].io.localPort = 1001
*.host3.app[11].typename = "UdpSinkApp"
*.host3.app[11].io.localPort = 1002
*.host3.app[12].typename = "UdpSinkApp"
*.host3.app[12].io.localPort = 1003
*.host4.numApps = 1
*.host4.app[0].typename = "UdpSinkApp"
*.host4.app[0].io.localPort = 1000
*.host5.numApps = 23
*.host5.app[0].typename = "UdpSinkApp"
*.host5.app[0].io.localPort = 1000
*.host5.app[1].typename = "UdpSourceApp"
*.host5.app[1].io.destAddress = "host3"
*.host5.app[1].source.packetNameFormat = "%M-%m-%c"
*.host5.app[1].source.displayStringTextFormat = "sent %p pk (%l)"
*.host5.app[1].source.packetLength = 20B
*.host5.app[1].source.productionInterval = 1ms
*.host5.app[1].display-name = "type1_1"
*.host5.app[1].io.destPort = 1000
*.host5.app[2].typename = "UdpSourceApp"
*.host5.app[2].io.destAddress = "host6"
*.host5.app[2].source.packetNameFormat = "%M-%m-%c"
*.host5.app[2].source.displayStringTextFormat = "sent %p pk (%l)"
*.host5.app[2].source.packetLength = 22B
*.host5.app[2].source.productionInterval = 1ms
*.host5.app[2].display-name = "type1_2"
*.host5.app[2].io.destPort = 1000
*.host5.app[3].typename = "UdpSinkApp"
*.host5.app[3].io.localPort = 1001
*.host5.app[4].typename = "UdpBasicApp"
*.host5.app[4].destAddresses = "host1"
*.host5.app[4].source.packetNameFormat = "%M-%m-%c"
*.host5.app[4].source.displayStringTextFormat = "sent %p pk (%l)"
*.host5.app[4].messageLength = 17B
*.host5.app[4].sendInterval = 1ms
*.host5.app[4].startTime = 0ms
*.host5.app[4].stopTime = 16ms
*.host5.app[4].display-name = "type2_3"
*.host5.app[4].destPort = 1000
*.host5.app[5].typename = "UdpBasicApp"
*.host5.app[5].destAddresses = "host1"
*.host5.app[5].source.packetNameFormat = "%M-%m-%c"
*.host5.app[5].source.displayStringTextFormat = "sent %p pk (%l)"
*.host5.app[5].messageLength = 17B
*.host5.app[5].sendInterval = 1ms
*.host5.app[5].startTime = 18ms
*.host5.app[5].stopTime = 20ms
*.host5.app[5].display-name = "type2_3"
*.host5.app[5].destPort = 1000
*.host5.app[6].typename = "UdpBasicApp"
*.host5.app[6].destAddresses = "host1"
*.host5.app[6].source.packetNameFormat = "%M-%m-%c"
*.host5.app[6].source.displayStringTextFormat = "sent %p pk (%l)"
*.host5.app[6].messageLength = 17B
*.host5.app[6].sendInterval = 1ms
*.host5.app[6].startTime = 29ms
*.host5.app[6].stopTime = 47ms
*.host5.app[6].display-name = "type2_3"
*.host5.app[6].destPort = 1000
*.host5.app[7].typename = "UdpBasicApp"
*.host5.app[7].destAddresses = "host1"
*.host5.app[7].source.packetNameFormat = "%M-%m-%c"
*.host5.app[7].source.displayStringTextFormat = "sent %p pk (%l)"
*.host5.app[7].messageLength = 17B
*.host5.app[7].sendInterval = 1ms
*.host5.app[7].startTime = 50ms
*.host5.app[7].stopTime = 57ms
*.host5.app[7].display-name = "type2_3"
*.host5.app[7].destPort = 1000
*.host5.app[8].typename = "UdpBasicApp"
*.host5.app[8].destAddresses = "host1"
*.host5.app[8].source.packetNameFormat = "%M-%m-%c"
*.host5.app[8].source.displayStringTextFormat = "sent %p pk (%l)"
*.host5.app[8].messageLength = 17B
*.host5.app[8].sendInterval = 1ms
*.host5.app[8].startTime = 63ms