[General]
network = TSN_multipath
sim-time-limit = 100ms
*.macForwardingTableConfigurator.typename = ""
*.*.hasStreamRedundancy = true
*.*.bridging.streamRelay.typename = "StreamRelayLayer"
*.*.bridging.streamCoder.typename = "StreamCoderLayer"
*.streamRedundancyConfigurator.typename = "StreamRedundancyConfigurator"
*.host0.eth[0].bitrate = 1000Mbps
*.switch0.eth[0].bitrate = 1000Mbps
*.switch0.eth[1].bitrate = 1600Mbps
*.switch0.eth[2].bitrate = 2400Mbps
*.switch0.eth[3].bitrate = 1400Mbps
*.switch0.eth[4].bitrate = 1500Mbps
*.switch0.eth[5].bitrate = 2400Mbps
*.switch0.eth[6].bitrate = 2100Mbps
*.switch0.eth[7].bitrate = 1400Mbps
*.switch0.eth[8].bitrate = 2100Mbps
*.switch0.eth[9].bitrate = 1500Mbps
*.switch0.eth[10].bitrate = 1400Mbps
*.switch0.eth[11].bitrate = 1900Mbps
*.switch0.eth[12].bitrate = 1300Mbps
*.switch0.eth[13].bitrate = 1200Mbps
*.switch0.eth[14].bitrate = 2300Mbps
*.host1.eth[0].bitrate = 1000Mbps
*.switch1.eth[0].bitrate = 1000Mbps
*.switch1.eth[1].bitrate = 2400Mbps
*.switch1.eth[2].bitrate = 1200Mbps
*.switch1.eth[3].bitrate = 1200Mbps
*.switch1.eth[4].bitrate = 1600Mbps
*.switch1.eth[5].bitrate = 2400Mbps
*.switch1.eth[6].bitrate = 2400Mbps
*.switch1.eth[7].bitrate = 2300Mbps
*.switch1.eth[8].bitrate = 2000Mbps
*.host2.eth[0].bitrate = 1000Mbps
*.switch2.eth[0].bitrate = 1000Mbps
*.switch2.eth[1].bitrate = 2400Mbps
*.switch2.eth[2].bitrate = 2100Mbps
*.switch2.eth[3].bitrate = 1600Mbps
*.switch2.eth[4].bitrate = 1800Mbps
*.switch2.eth[5].bitrate = 2400Mbps
*.switch2.eth[6].bitrate = 2000Mbps
*.switch2.eth[7].bitrate = 1700Mbps
*.switch2.eth[8].bitrate = 1900Mbps
*.switch2.eth[9].bitrate = 1900Mbps
*.switch2.eth[10].bitrate = 1300Mbps
*.switch2.eth[11].bitrate = 1500Mbps
*.switch2.eth[12].bitrate = 1200Mbps
*.switch2.eth[13].bitrate = 1800Mbps
*.switch2.eth[14].bitrate = 1500Mbps
*.switch2.eth[15].bitrate = 1200Mbps
*.switch2.eth[16].bitrate = 2400Mbps
*.switch2.eth[17].bitrate = 2300Mbps
*.switch2.eth[18].bitrate = 2300Mbps
*.switch2.eth[19].bitrate = 2300Mbps
*.host3.eth[0].bitrate = 1000Mbps
*.switch3.eth[0].bitrate = 1000Mbps
*.switch3.eth[1].bitrate = 1800Mbps
*.switch3.eth[2].bitrate = 1900Mbps
*.switch3.eth[3].bitrate = 2200Mbps
*.switch3.eth[4].bitrate = 1300Mbps
*.switch3.eth[5].bitrate = 1400Mbps
*.switch3.eth[6].bitrate = 1700Mbps
*.switch3.eth[7].bitrate = 1600Mbps
*.switch3.eth[8].bitrate = 1700Mbps
*.switch3.eth[9].bitrate = 2000Mbps
*.switch3.eth[10].bitrate = 1600Mbps
*.host4.eth[0].bitrate = 1000Mbps
*.switch4.eth[0].bitrate = 1000Mbps
*.switch4.eth[1].bitrate = 2400Mbps
*.switch4.eth[2].bitrate = 1200Mbps
*.switch4.eth[3].bitrate = 2200Mbps
*.switch4.eth[4].bitrate = 1700Mbps
*.switch4.eth[5].bitrate = 2400Mbps
*.switch4.eth[6].bitrate = 2100Mbps
*.switch4.eth[7].bitrate = 2200Mbps
*.switch4.eth[8].bitrate = 2200Mbps
*.switch4.eth[9].bitrate = 2400Mbps
*.switch4.eth[10].bitrate = 2300Mbps
*.switch4.eth[11].bitrate = 1700Mbps
*.switch4.eth[12].bitrate = 1200Mbps
*.switch4.eth[13].bitrate = 1700Mbps
*.switch4.eth[14].bitrate = 1600Mbps
*.switch4.eth[15].bitrate = 2400Mbps
*.host5.eth[0].bitrate = 1000Mbps
*.switch5.eth[0].bitrate = 1000Mbps
*.switch5.eth[1].bitrate = 1700Mbps
*.switch5.eth[2].bitrate = 1800Mbps
*.switch5.eth[3].bitrate = 1300Mbps
*.switch5.eth[4].bitrate = 1200Mbps
*.switch5.eth[5].bitrate = 2000Mbps
*.switch5.eth[6].bitrate = 1800Mbps
*.switch5.eth[7].bitrate = 2300Mbps
*.switch5.eth[8].bitrate = 1500Mbps
*.switch5.eth[9].bitrate = 1700Mbps
*.switch5.eth[10].bitrate = 2000Mbps
*.switch5.eth[11].bitrate = 2100Mbps
*.switch5.eth[12].bitrate = 2200Mbps
*.switch5.eth[13].bitrate = 1500Mbps
*.switch5.eth[14].bitrate = 1700Mbps
*.switch5.eth[15].bitrate = 1400Mbps
*.switch5.eth[16].bitrate = 1400Mbps
*.switch5.eth[17].bitrate = 1200Mbps
*.switch5.eth[18].bitrate = 1200Mbps
*.switch5.eth[19].bitrate = 1300Mbps
*.host6.eth[0].bitrate = 1000Mbps
*.switch6.eth[0].bitrate = 1000Mbps
*.switch6.eth[1].bitrate = 1600Mbps
*.switch6.eth[2].bitrate = 1200Mbps
*.switch6.eth[3].bitrate = 2400Mbps
*.switch6.eth[4].bitrate = 2000Mbps
*.switch6.eth[5].bitrate = 1400Mbps
*.switch6.eth[6].bitrate = 2000Mbps
*.switch6.eth[7].bitrate = 1400Mbps
*.switch6.eth[8].bitrate = 1900Mbps
*.switch6.eth[9].bitrate = 2200Mbps
*.switch6.eth[10].bitrate = 2200Mbps
*.switch6.eth[11].bitrate = 2200Mbps
*.switch6.eth[12].bitrate = 2400Mbps
*.switch6.eth[13].bitrate = 1400Mbps
*.host7.eth[0].bitrate = 1000Mbps
*.switch7.eth[0].bitrate = 1000Mbps
*.switch7.eth[1].bitrate = 1900Mbps
*.switch7.eth[2].bitrate = 1800Mbps
*.switch7.eth[3].bitrate = 1400Mbps
*.switch7.eth[4].bitrate = 2400Mbps
*.switch7.eth[5].bitrate = 1500Mbps
*.switch7.eth[6].bitrate = 1700Mbps
*.switch7.eth[7].bitrate = 1400Mbps
*.switch7.eth[8].bitrate = 1900Mbps
*.switch7.eth[9].bitrate = 1300Mbps
*.switch7.eth[10].bitrate = 1300Mbps
*.switch7.eth[11].bitrate = 2000Mbps
*.switch7.eth[12].bitrate = 2300Mbps
*.switch7.eth[13].bitrate = 2100Mbps
*.switch7.eth[14].bitrate = 1900Mbps
*.switch7.eth[15].bitrate = 2300Mbps
*.switch7.eth[16].bitrate = 2200Mbps
*.switch7.eth[17].bitrate = 2100Mbps
*.switch7.eth[18].bitrate = 2300Mbps
*.switch7.eth[19].bitrate = 2300Mbps
*.switch7.eth[20].bitrate = 2000Mbps
*.switch7.eth[21].bitrate = 1200Mbps
*.switch7.eth[22].bitrate = 2200Mbps
*.switch7.eth[23].bitrate = 1300Mbps
*.host8.eth[0].bitrate = 1000Mbps
*.switch8.eth[0].bitrate = 1000Mbps
*.switch8.eth[1].bitrate = 1300Mbps
*.switch8.eth[2].bitrate = 2200Mbps
*.switch8.eth[3].bitrate = 2000Mbps
*.switch8.eth[4].bitrate = 2100Mbps
*.switch8.eth[5].bitrate = 2000Mbps
*.switch8.eth[6].bitrate = 1400Mbps
*.switch8.eth[7].bitrate = 2300Mbps
*.switch8.eth[8].bitrate = 2300Mbps
*.switch8.eth[9].bitrate = 1500Mbps
*.switch8.eth[10].bitrate = 1900Mbps
*.switch8.eth[11].bitrate = 2200Mbps
*.host9.eth[0].bitrate = 1000Mbps
*.switch9.eth[0].bitrate = 1000Mbps
*.switch9.eth[1].bitrate = 2000Mbps
*.switch9.eth[2].bitrate = 1300Mbps
*.switch9.eth[3].bitrate = 2100Mbps
*.switch9.eth[4].bitrate = 2200Mbps
*.switch9.eth[5].bitrate = 1200Mbps
*.switch9.eth[6].bitrate = 2300Mbps
*.switch9.eth[7].bitrate = 1300Mbps
*.switch9.eth[8].bitrate = 2200Mbps
*.switch9.eth[9].bitrate = 1600Mbps
*.switch9.eth[10].bitrate = 1600Mbps
*.switch9.eth[11].bitrate = 1400Mbps
*.switch9.eth[12].bitrate = 2400Mbps
*.switch9.eth[13].bitrate = 1800Mbps
*.switch9.eth[14].bitrate = 1900Mbps
*.host10.eth[0].bitrate = 1000Mbps
*.switch10.eth[0].bitrate = 1000Mbps
*.switch10.eth[1].bitrate = 1700Mbps
*.switch10.eth[2].bitrate = 2000Mbps
*.switch10.eth[3].bitrate = 1500Mbps
*.switch10.eth[4].bitrate = 1400Mbps
*.switch10.eth[5].bitrate = 1300Mbps
*.switch10.eth[6].bitrate = 1700Mbps
*.switch10.eth[7].bitrate = 1300Mbps
*.switch10.eth[8].bitrate = 1600Mbps
*.switch10.eth[9].bitrate = 1200Mbps
*.switch10.eth[10].bitrate = 2100Mbps
*.switch10.eth[11].bitrate = 1900Mbps
*.switch10.eth[12].bitrate = 2000Mbps
*.switch10.eth[13].bitrate = 2100Mbps
*.host11.eth[0].bitrate = 1000Mbps
*.switch11.eth[0].bitrate = 1000Mbps
*.switch11.eth[1].bitrate = 2400Mbps
*.switch11.eth[2].bitrate = 1900Mbps
*.switch11.eth[3].bitrate = 2100Mbps
*.switch11.eth[4].bitrate = 2300Mbps
*.switch11.eth[5].bitrate = 2300Mbps
*.switch11.eth[6].bitrate = 2100Mbps
*.switch11.eth[7].bitrate = 1200Mbps
*.switch11.eth[8].bitrate = 2000Mbps
*.switch11.eth[9].bitrate = 2100Mbps
*.switch11.eth[10].bitrate = 2000Mbps
*.switch11.eth[11].bitrate = 2100Mbps
*.switch11.eth[12].bitrate = 2200Mbps
*.host12.eth[0].bitrate = 1000Mbps
*.switch12.eth[0].bitrate = 1000Mbps
*.switch12.eth[1].bitrate = 1400Mbps
*.switch12.eth[2].bitrate = 1900Mbps
*.switch12.eth[3].bitrate = 2200Mbps
*.switch12.eth[4].bitrate = 2000Mbps
*.switch12.eth[5].bitrate = 2100Mbps
*.switch12.eth[6].bitrate = 1400Mbps
*.switch12.eth[7].bitrate = 2400Mbps
*.switch12.eth[8].bitrate = 1700Mbps
*.switch12.eth[9].bitrate = 1200Mbps
*.switch12.eth[10].bitrate = 2200Mbps
*.switch12.eth[11].bitrate = 1600Mbps
*.switch12.eth[12].bitrate = 2100Mbps
*.switch12.eth[13].bitrate = 1600Mbps
*.switch12.eth[14].bitrate = 1900Mbps
*.switch12.eth[15].bitrate = 1400Mbps
*.switch12.eth[16].bitrate = 1900Mbps
*.switch12.eth[17].bitrate = 2200Mbps
*.switch12.eth[18].bitrate = 1200Mbps
*.switch12.eth[19].bitrate = 1700Mbps
*.host13.eth[0].bitrate = 1000Mbps
*.switch13.eth[0].bitrate = 1000Mbps
*.switch13.eth[1].bitrate = 1500Mbps
*.switch13.eth[2].bitrate = 1200Mbps
*.switch13.eth[3].bitrate = 1300Mbps
*.switch13.eth[4].bitrate = 2200Mbps
*.switch13.eth[5].bitrate = 1500Mbps
*.switch13.eth[6].bitrate = 1900Mbps
*.switch13.eth[7].bitrate = 2000Mbps
*.switch13.eth[8].bitrate = 1600Mbps
*.switch13.eth[9].bitrate = 1600Mbps
*.switch13.eth[10].bitrate = 1200Mbps
*.switch13.eth[11].bitrate = 2000Mbps
*.switch13.eth[12].bitrate = 2300Mbps
*.switch13.eth[13].bitrate = 2400Mbps
*.switch13.eth[14].bitrate = 2300Mbps
*.switch13.eth[15].bitrate = 2200Mbps
*.switch13.eth[16].bitrate = 1400Mbps
*.host14.eth[0].bitrate = 1000Mbps
*.switch14.eth[0].bitrate = 1000Mbps
*.switch14.eth[1].bitrate = 1700Mbps
*.switch14.eth[2].bitrate = 2300Mbps
*.switch14.eth[3].bitrate = 2300Mbps
*.switch14.eth[4].bitrate = 1200Mbps
*.switch14.eth[5].bitrate = 1600Mbps
*.switch14.eth[6].bitrate = 1600Mbps
*.switch14.eth[7].bitrate = 2200Mbps
*.switch14.eth[8].bitrate = 1200Mbps
*.switch14.eth[9].bitrate = 2300Mbps
*.switch14.eth[10].bitrate = 1600Mbps
*.switch14.eth[11].bitrate = 2100Mbps
*.switch14.eth[12].bitrate = 2100Mbps
*.switch14.eth[13].bitrate = 2200Mbps
*.switch14.eth[14].bitrate = 2300Mbps
*.switch14.eth[15].bitrate = 1200Mbps
*.switch14.eth[16].bitrate = 1200Mbps
*.switch14.eth[17].bitrate = 2100Mbps
*.switch14.eth[18].bitrate = 1700Mbps
*.switch14.eth[19].bitrate = 1700Mbps
*.switch14.eth[20].bitrate = 1600Mbps
*.switch14.eth[21].bitrate = 1400Mbps
*.switch14.eth[22].bitrate = 1400Mbps
*.host15.eth[0].bitrate = 1000Mbps
*.switch15.eth[0].bitrate = 1000Mbps
*.switch15.eth[1].bitrate = 2400Mbps
*.switch15.eth[2].bitrate = 2000Mbps
*.switch15.eth[3].bitrate = 2200Mbps
*.switch15.eth[4].bitrate = 1400Mbps
*.switch15.eth[5].bitrate = 1700Mbps
*.switch15.eth[6].bitrate = 1900Mbps
*.switch15.eth[7].bitrate = 1200Mbps
*.switch15.eth[8].bitrate = 1900Mbps
*.switch15.eth[9].bitrate = 2000Mbps
*.switch15.eth[10].bitrate = 2400Mbps
*.switch15.eth[11].bitrate = 1700Mbps
*.switch15.eth[12].bitrate = 2400Mbps
*.switch15.eth[13].bitrate = 1400Mbps
*.switch15.eth[14].bitrate = 2400Mbps
*.switch15.eth[15].bitrate = 1600Mbps
*.switch15.eth[16].bitrate = 1300Mbps
*.switch15.eth[17].bitrate = 1300Mbps
*.switch15.eth[18].bitrate = 1900Mbps
*.switch15.eth[19].bitrate = 2000Mbps
*.switch15.eth[20].bitrate = 2300Mbps
*.host16.eth[0].bitrate = 1000Mbps
*.switch16.eth[0].bitrate = 1000Mbps
*.switch16.eth[1].bitrate = 2100Mbps
*.switch16.eth[2].bitrate = 2100Mbps
*.switch16.eth[3].bitrate = 1200Mbps
*.switch16.eth[4].bitrate = 1300Mbps
*.switch16.eth[5].bitrate = 2300Mbps
*.switch16.eth[6].bitrate = 2000Mbps
*.switch16.eth[7].bitrate = 1200Mbps
*.switch16.eth[8].bitrate = 2400Mbps
*.switch16.eth[9].bitrate = 1500Mbps
*.switch16.eth[10].bitrate = 2400Mbps
*.switch16.eth[11].bitrate = 1900Mbps
*.switch16.eth[12].bitrate = 1200Mbps
*.switch16.eth[13].bitrate = 2300Mbps
*.switch16.eth[14].bitrate = 1400Mbps
*.switch16.eth[15].bitrate = 1900Mbps
*.switch16.eth[16].bitrate = 1500Mbps
*.switch16.eth[17].bitrate = 1500Mbps
*.switch16.eth[18].bitrate = 1500Mbps
*.host17.eth[0].bitrate = 1000Mbps
*.switch17.eth[0].bitrate = 1000Mbps
*.switch17.eth[1].bitrate = 2300Mbps
*.switch17.eth[2].bitrate = 2200Mbps
*.switch17.eth[3].bitrate = 2300Mbps
*.switch17.eth[4].bitrate = 2300Mbps
*.switch17.eth[5].bitrate = 1400Mbps
*.switch17.eth[6].bitrate = 2100Mbps
*.switch17.eth[7].bitrate = 1300Mbps
*.switch17.eth[8].bitrate = 1500Mbps
*.switch17.eth[9].bitrate = 1200Mbps
*.switch17.eth[10].bitrate = 2300Mbps
*.switch17.eth[11].bitrate = 2200Mbps
*.switch17.eth[12].bitrate = 1900Mbps
*.switch17.eth[13].bitrate = 1800Mbps
*.switch17.eth[14].bitrate = 2000Mbps
*.switch17.eth[15].bitrate = 2200Mbps
*.switch17.eth[16].bitrate = 2200Mbps
*.switch17.eth[17].bitrate = 1400Mbps
*.switch17.eth[18].bitrate = 2000Mbps
*.switch17.eth[19].bitrate = 1700Mbps
*.host18.eth[0].bitrate = 1000Mbps
*.switch18.eth[0].bitrate = 1000Mbps
*.switch18.eth[1].bitrate = 2400Mbps
*.switch18.eth[2].bitrate = 1500Mbps
*.switch18.eth[3].bitrate = 1400Mbps
*.switch18.eth[4].bitrate = 2300Mbps
*.switch18.eth[5].bitrate = 1900Mbps
*.switch18.eth[6].bitrate = 1700Mbps
*.switch18.eth[7].bitrate = 1500Mbps
*.switch18.eth[8].bitrate = 1600Mbps
*.switch18.eth[9].bitrate = 1900Mbps
*.host19.eth[0].bitrate = 1000Mbps
*.switch19.eth[0].bitrate = 1000Mbps
*.switch19.eth[1].bitrate = 1500Mbps
*.switch19.eth[2].bitrate = 1700Mbps
*.switch19.eth[3].bitrate = 1700Mbps
*.switch19.eth[4].bitrate = 2300Mbps
*.switch19.eth[5].bitrate = 1300Mbps
*.switch19.eth[6].bitrate = 2000Mbps
*.switch19.eth[7].bitrate = 1700Mbps
*.switch19.eth[8].bitrate = 1300Mbps
*.switch19.eth[9].bitrate = 2300Mbps
*.switch19.eth[10].bitrate = 2300Mbps
*.switch19.eth[11].bitrate = 1300Mbps
*.switch19.eth[12].bitrate = 1400Mbps
*.switch19.eth[13].bitrate = 1300Mbps
*.switch19.eth[14].bitrate = 2200Mbps
*.switch19.eth[15].bitrate = 1900Mbps
*.switch19.eth[16].bitrate = 2100Mbps
*.switch19.eth[17].bitrate = 1700Mbps
*.switch19.eth[18].bitrate = 1400Mbps
*.switch19.eth[19].bitrate = 2300Mbps
*.switch19.eth[20].bitrate = 1500Mbps
*.switch19.eth[21].bitrate = 1700Mbps
*.switch19.eth[22].bitrate = 1900Mbps
*.host0.numApps = 2
*.host0.app[0].typename = "UdpSourceApp"
*.host0.app[0].io.destAddress = "host14"
*.host0.app[0].source.packetNameFormat = "%M-%m-%c"
*.host0.app[0].source.displayStringTextFormat = "sent %p pk (%l)"
*.host0.app[0].source.packetLength = 15B
*.host0.app[0].source.productionInterval = 1ms
*.host0.app[0].display-name = "type1_5"
*.host0.app[0].io.destPort = 1001
*.host0.app[1].typename = "UdpSinkApp"
*.host0.app[1].io.localPort = 1000
*.host1.numApps = 3
*.host1.app[0].typename = "UdpSinkApp"
*.host1.app[0].io.localPort = 1000
*.host1.app[1].typename = "UdpSinkApp"
*.host1.app[1].io.localPort = 1001
*.host1.app[2].typename = "UdpSinkApp"
*.host1.app[2].io.localPort = 1002
*.host2.numApps = 8
*.host2.app[0].typename = "UdpBasicApp"
*.host2.app[0].destAddresses = "host8"
*.host2.app[0].source.packetNameFormat = "%M-%m-%c"
*.host2.app[0].source.displayStringTextFormat = "sent %p pk (%l)"
*.host2.app[0].messageLength = 18B
*.host2.app[0].sendInterval = 1ms
*.host2.app[0].startTime = 2ms
*.host2.app[0].stopTime = 9ms
*.host2.app[0].display-name = "type2_3"
*.host2.app[0].destPort = 1000
*.host2.app[1].typename = "UdpBasicApp"
*.host2.app[1].destAddresses = "host8"
*.host2.app[1].source.packetNameFormat = "%M-%m-%c"
*.host2.app[1].source.displayStringTextFormat = "sent %p pk (%l)"
*.host2.app[1].messageLength = 18B
*.host2.app[1].sendInterval = 1ms
*.host2.app[1].startTime = 11ms
*.host2.app[1].stopTime = 19ms
*.host2.app[1].display-name = "type2_3"
*.host2.app[1].destPort = 1000
*.host2.app[2].typename = "UdpBasicApp"
*.host2.app[2].destAddresses = "host8"
*.host2.app[2].source.packetNameFormat = "%M-%m-%c"
*.host2.app[2].source.displayStringTextFormat = "sent %p pk (%l)"
*.host2.app[2].messageLength = 18B
*.host2.app[2].sendInterval = 1ms
*.host2.app[2].startTime = 23ms
*.host2.app[2].stopTime = 28ms
*.host2.app[2].display-name = "type2_3"
*.host2.app[2].destPort = 1000
*.host2.app[3].typename = "UdpBasicApp"
*.host2.app[3].destAddresses = "host8"
*.host2.app[3].source.packetNameFormat = "%M-%m-%c"
*.host2.app[3].source.displayStringTextFormat = "sent %p pk (%l)"
*.host2.app[3].messageLength = 18B
*.host2.app[3].sendInterval = 1ms
*.host2.app[3].startTime = 37ms
*.host2.app[3].stopTime = 43ms
*.host2.app[3].display-name = "type2_3"
*.host2.app[3].destPort = 1000
*.host2.app[4].typename = "UdpBasicApp"
*.host2.app[4].destAddresses = "host8"
*.host2.app[4].source.packetNameFormat = "%M-%m-%c"
*.host2.app[4].source.displayStringTextFormat = "sent %p pk (%l)"
*.host2.app[4].messageLength = 18B
*.host2.app[4].sendInterval = 1ms
*.host2.app[4].startTime = 57ms
*.host2.app[4].stopTime = 61ms
*.host2.app[4].display-name = "type2_3"
*.host2.app[4].destPort = 1000
*.host2.app[5].typename = "UdpBasicApp"
*.host2.app[5].destAddresses = "host8"
*.host2.app[5].source.packetNameFormat = "%M-%m-%c"
*.host2.app[5].source.displayStringTextFormat = "sent %p pk (%l)"
*.host2.app[5].messageLength = 18B
*.host2.app[5].sendInterval = 1ms
*.host2.app[5].startTime = 87ms
*.host2.app[5].stopTime = 88ms
*.host2.app[5].display-name = "type2_3"
*.host2.app[5].destPort = 1000
*.host2.app[6].typename = "UdpSinkApp"
*.host2.app[6].io.localPort = 1000
*.host2.app[7].typename = "UdpSinkApp"
*.host2.app[7].io.localPort = 1001
*.host3.numApps = 13
*.host3.app[0].typename = "UdpBasicApp"
*.host3.app[0].destAddresses = "host2"
*.host3.app[0].source.packetNameFormat = "%M-%m-%c"
*.host3.app[0].source.displayStringTextFormat = "sent %p pk (%l)"
*.host3.app[0].messageLength = 19B
*.host3.app[0].sendInterval = 1ms
*.host3.app[0].startTime = 8ms
*.host3.app[0].stopTime = 9ms
*.host3.app[0].display-name = "type2_8"
*.host3.app[0].destPort = 1001
*.host3.app[1].typename = "UdpBasicApp"
*.host3.app[1].destAddresses = "host2"
*.host3.app[1].source.packetNameFormat = "%M-%m-%c"
*.host3.app[1].source.displayStringTextFormat = "sent %p pk (%l)"
*.host3.app[1].messageLength = 19B
*.host3.app[1].sendInterval = 1ms
*.host3.app[1].startTime = 15ms
*.host3.app[1].stopTime = 24ms
*.host3.app[1].display-name = "type2_8"
*.host3.app[1].destPort = 1001
*.host3.app[2].typename = "UdpBasicApp"
*.host3.app[2].destAddresses = "host2"
*.host3.app[2].source.packetNameFormat = "%M-%m-%c"
*.host3.app[2].source.displayStringTextFormat = "sent %p pk (%l)"
*.host3.app[2].messageLength = 19B
*.host3.app[2].sendInterval = 1ms
*.host3.app[2].startTime = 51ms
*.host3.app[2].stopTime = 57ms
*.host3.app[2].display-name = "type2_8"
*.host3.app[2].destPort = 1001
*.host3.app[3].typename = "UdpBasicApp"
*.host3.app[3].destAddresses = "host2"
*.host3.app[3].source.packetNameFormat = "%M-%m-%c"
*.host3.app[3].source.displayStringTextFormat = "sent %p pk (%l)"
*.host3.app[3].messageLength = 19B
*.host3.app[3].sendInterval = 1ms
*.host3.app[3].startTime = 84ms
*.host3.app[3].stopTime = 89ms
*.host3.app[3].display-name = "type2_8"
*.host3.app[3].destPort = 1001
*.host3.app[4].typename = "UdpBasicApp"
*.host3.app[4].destAddresses = "host2"
*.host3.app[4].source.packetNameFormat = "%M-%m-%c"
*.host3.app[4].source.displayStringTextFormat = "sent %p pk (%l)"
*.host3.app[4].messageLength = 19B
*.host3.app[4].sendInterval = 1ms
*.host3.app[4].startTime = 94ms
*.host3.app[4].stopTime = 95ms
*.host3.app[4].display-name = "type2_8"
*.host3.app[4].destPort = 1001
*.host3.app[5].typename = "UdpBasicApp"
*.host3.app[5].destAddresses = "host2"
*.host3.app[5].source.packetNameFormat = "%M-%m-%c"
*.host3.app[5].source.displayStringTextFormat = "sent %p pk (%l)"
*.host3.app[5].messageLength = 19B
*.host3.app[5].sendInterval = 1ms
*.host3.app[5].startTime = 99ms
*.host3.app[5].stopTime = 100ms
*.host3.app[5].display-name = "type2_8"
*.host3.app[5].destPort = 1001
*.host3.app[6].typename = "UdpSinkApp"
*.host3.app[6].io.localPort = 1000
*.host3.app[7].typename = "UdpBasicApp"
*.host3.app[7].destAddresses = "host0"
*.host3.app[7].source.packetNameFormat = "%M-%m-%c"
*.host3.app[7].source.displayStringTextFormat = "sent %p pk (%l)"
*.host3.app[7].messageLength = 22B
*.host3.app[7].sendInterval = 1ms
*.host3.app[7].startTime = 27ms
*.host3.app[7].stopTime = 30ms
*.host3.app[7].display-name = "type2_16"
*.host3.app[7].destPort = 1000
*.host3.app[8].typename = "UdpBasicApp"
*.host3.app[8].destAddresses = "host0"
*.host3.app[8].source.packetNameFormat = "%M-%m-%c"
*.host3.app[8].source.displayStringTextFormat = "sent %p pk (%l)"
*.host3.app[8].messageLength = 22B
*.host3.app[8].sendInterval = 1ms
*.host3.app[8].startTime = 38ms
*.host3.app[8].stopTime = 42ms
*.host3.app[8].display-name = "type2_16"
*.host3.app[8].destPort = 1000
*.host3.app[9].typename = "UdpBasicApp"
*.host3.app[9].destAddresses = "host0"
*.host3.app[9].source.packetNameFormat = "%M-%m-%c"
*.host3.app[9].source.displayStringTextFormat = "sent %p pk (%l)"
*.host3.app[9].messageLength = 22B
*.host3.app[9].sendInterval = 1ms
*.host3.app[9].startTime = 48ms
*.host3.app[9].stopTime = 51ms
*.host3.app[9].display-name = "type2_16"
*.host3.app[9].destPort = 1000
*.host3.app[10].typename = "UdpBasicApp"
*.host3.app[10].destAddresses = "host0"
*.host3.app[10].source.packetNameFormat = "%M-%m-%c"
*.host3.app[10].source.displayStringTextFormat = "sent %p pk (%l)"
*.host3.app[10].messageLength = 22B
*.host3.app[10].sendInterval = 1ms
*.host3.app[10].startTime = 63ms
*.host3.app[10].stopTime = 72ms
*.host3.app[10].display-name = "type2_16"
*.host3.app[10].destPort = 1000
*.host3.app[11].typename = "UdpBasicApp"
*.host3.app[11].destAddresses = "host0"
*.host3.app[11].source.packetNameFormat = "%M-%m-%c"
*.host3.app[11].source.displayStringTextFormat = "sent %p pk (%l)"
*.host3.app[11].messageLength = 22B
*.host3.app[11].sendInterval = 1ms
*.host3.app[11].startTime = 77ms
*.host3.app[11].stopTime = 88ms
*.host3.app[11].display-name = "type2_16"
*.host3.app[11].destPort = 1000
*.host3.app[12].typename = "UdpBasicApp"
*.host3.app[12].destAddresses = "host0"
*.host3.app[12].source.packetNameFormat = "%M-%m-%c"
*.host3.app[12].source.displayStringTextFormat = "sent %p pk (%l)"
*.host3.app[12].messageLength = 22B
*.host3.app[12].sendInterval = 1ms
*.host3.app[12].startTime = 91ms
*.host3.app[12].stopTime = 100ms
*.host3.app[12].display-name = "type2_16"
*.host3.app[12].destPort = 1000
*.host4.numApps = 1
*.host4.app[0].typename = "UdpSinkApp"
*.host4.app[0].io.localPort = 1000
*.host5.numApps = 3
*.host5.app[0].typename = "UdpBasicApp"
*.host5.app[0].destAddresses = "host12"
*.host5.app[0].source.packetNameFormat = "%M-%m-%c"
*.host5.app[0].source.displayStringTextFormat = "sent %p pk (%l)"
*.host5.app[0].messageLength = 17B
*.host5.app[0].sendInterval = 1ms
*.host5.app[0].startTime = 20ms
*.host5.app[0].stopTime = 31ms
*.host5.app[0].display-name = "type2_11"
*.host5.app[0].destPort = 1000
*.host5.app[1].typename = "UdpBasicApp"
*.host5.app[1].destAddresses = "host12"
*.host5.app[1].source.packetNameFormat = "%M-%m-%c"
*.host5.app[1].source.displayStringTextFormat = "sent %p pk (%l)"
*.host5.app[1].messageLength = 17B
*.host5.app[1].sendInterval = 1ms
*.host5.app[1].startTime = 41ms
*.host5.app[1].stopTime = 55ms
*.host5.app[1].display-name = "type2_11"
*.host5.app[1].destPort = 1000
*.host5.app[2].typename = "UdpBasicApp"
*.host5.app[2].destAddresses = "host12"
*.host5.app[2].source.packetNameFormat = "%M-%m-%c"
*.host5.app[2].source.displayStringTextFormat = "sent %p pk (%l)"
*.host5.app[2].messageLength = 17B
*.host5.app[2].sendInterval = 1ms
*.host5.app[2].startTime = 63ms
*.host5.app[2].stopTime = 100ms
*.host5.app[2].display-name = "type2_11"
*.host5.app[2].destPort = 1000
*.host6.numApps = 7
*.host6.app[0].typename = "UdpSourceApp"
*.host6.app[0].io.destAddress = "host1"
*.host6.app[0].source.packetNameFormat = "%M-%m-%c"
*.host6.app[0].source.displayStringTextFormat = "sent %p pk (%l)"
*.host6.app[0].source.packetLength = 15B
*.host6.app[0].source.productionInterval = 1ms
*.host6.app[0].display-name = "type1_1"
*.host6.app[0].io.destPort = 1000
*.host6.app[1].typename = "UdpBasicApp"
*.host6.app[1].destAddresses = "host17"
*.host6.app[1].source.packetNameFormat = "%M-%m-%c"
*.host6.app[1].source.displayStringTextFormat = "sent %p pk (%l)"
*.host6.app[1].messageLength = 17B
*.host6.app[1].sendInterval = 1ms
*.host6.app[1].startTime = 3ms
*.host6.app[1].stopTime = 4ms
*.host6.app[1].display-name = "type2_2"
*.host6.app[1].destPort = 1000
*.host6.app[2].typename = "UdpBasicApp"
*.host6.app[2].destAddresses = "host17"
*.host6.app[2].source.packetNameFormat = "%M-%m-%c"
*.host6.app[2].source.displayStringTextFormat = "sent %p pk (%l)"
*.host6.app[2].messageLength = 17B
*.host6.app[2].sendInterval = 1ms
*.host6.app[2].startTime = 5ms
*.host6.app[2].stopTime = 11ms
*.host6.app[2].display-name = "type2_2"
*.host6.app[2].destPort = 1000
*.host6.app[3].typename = "UdpBasicApp"
*.host6.app[3].destAddresses = "host17"
*.host6.app[3].source.packetNameFormat = "%M-%m-%c"
*.host6.app[3].source.displayStringTextFormat = "sent %p pk (%l)"
*.host6.app[3].messageLength = 17B
*.host6.app[3].sendInterval = 1ms
*.host6.app[3].startTime = 29ms
*.host6.app[3].stopTime = 60ms
*.host6.app[3].display-name = "type2_2"
*.host6.app[3].destPort = 1000
*.host6.app[4].typename = "UdpBasicApp"
*.host6.app[4].destAddresses = "host17"
*.host6.app[4].source.packetNameFormat = "%M-%m-%c"
*.host6.app[4].source.displayStringTextFormat = "sent %p pk (%l)"
*.host6.app[4].messageLength = 17B
*.host6.app[4].sendInterval = 1ms
*.host6.app[4].startTime = 78ms
*.host6.app[4].stopTime = 79ms
*.host6.app[4].display-name = "type2_2"
*.host6.app[4].destPort = 1000
*.host6.app[5].typename = "UdpBasicApp"
*.host6.app[5].destAddresses = "host17"
*.host6.app[5].source.packetNameFormat = "%M-%m-%c"
*.host6.app[5].source.displayStringTextFormat = "sent %p pk (%l)"
*.host6.app[5].messageLength = 17B
*.host6.app[5].sendInterval = 1ms
*.host6.app[5].startTime = 88ms
*.host6.app[5].stopTime = 99ms
*.host6.app[5].display-name = "type2_2"
*.host6.app[5].destPort = 1000
*.host6.app[6].typename = "UdpSinkApp"
*.host6.app[6].io.localPort = 1000
*.host7.numApps = 10
*.host7.app[0].typename = "UdpSinkApp"
*.host7.app[0].io.localPort = 1000
*.host7.app[1].typename = "UdpBasicApp"
*.host7.app[1].destAddresses = "host8"
*.host7.app[1].source.packetNameFormat = "%M-%m-%c"
*.host7.app[1].source.displayStringTextFormat = "sent %p pk (%l)"
*.host7.app[1].messageLength = 15B
*.host7.app[1].sendInterval = 1ms
*.host7.app[1].startTime = 3ms
*.host7.app[1].stopTime = 16ms
*.host7.app[1].display-name = "type2_7"
*.host7.app[1].destPort = 1002
*.host7.app[2].typename = "UdpBasicApp"
*.host7.app[2].destAddresses = "host8"
*.host7.app[2].source.packetNameFormat = "%M-%m-%c"
*.host7.app[2].source.displayStringTextFormat = "sent %p pk (%l)"
*.host7.app[2].messageLength = 15B
*.host7.app[2].sendInterval = 1ms
*.host7.app[2].startTime = 24ms
*.host7.app[2].stopTime = 27ms
*.host7.app[2].display-name = "type2_7"
*.host7.app[2].destPort = 1002
*.host7.app[3].typename = "UdpBasicApp"
*.host7.app[3].destAddresses = "host8"
*.host7.app[3].source.packetNameFormat = "%M-%m-%c"
*.host7.app[3].source.displayStringTextFormat = "sent %p pk (%l)"
*.host7.app[3].messageLength = 15B
*.host7.app[3].sendInterval = 1ms
*.host7.app[3].startTime = 31ms
*.host7.app[3].stopTime = 34ms
*.host7.app[3].display-name = "type2_7"
*.host7.app[3].destPort = 1002
*.host7.app[4].typename = "UdpBasicApp"
*.host7.app[4].destAddresses = "host8"
*.host7.app[4].source.packetNameFormat = "%M-%m-%c"
*.host7.app[4].source.displayStringTextFormat = "sent %p pk (%l)"
*.host7.app[4].messageLength = 15B
*.host7.app[4].sendInterval = 1ms
*.host7.app[4].startTime = 42ms
*.host7.app[4].stopTime = 44ms
*.host7.app[4].display-name = "type2_7"
*.host7.app[4].destPort = 1002
*.host7.app[5].typename = "UdpBasicApp"
*.host7.app[5].destAddresses = "host8"
*.host7.app[5].source.packetNameFormat = "%M-%m-%c"
*.host7.app[5].source.displayStringTextFormat = "sent %p pk (%l)"
*.host7.app[5].messageLength = 15B
*.host7.app[5].sendInterval = 1ms
*.host7.app[5].startTime = 46ms
*.host7.app[5].stopTime = 48ms
*.host7.app[5].display-name = "type2_7"
*.host7.app[5].destPort = 1002
*.host7.app[6].typename = "UdpBasicApp"
*.host7.app[6].destAddresses = "host8"
*.host7.app[6].source.packetNameFormat = "%M-%m-%c"
*.host7.app[6].source.displayStringTextFormat = "sent %p pk (%l)"
*.host7.app[6].messageLength = 15B
*.host7.app[6].sendInterval = 1ms
*.host7.app[6].startTime = 56ms
*.host7.app[6].stopTime = 58ms
*.host7.app[6].display-name = "type2_7"
*.host7.app[6].destPort = 1002
*.host7.app[7].typename = "UdpBasicApp"
*.host7.app[7].destAddresses = "host8"
*.host7.app[7].source.packetNameFormat = "%M-%m-%c"
*.host7.app[7].source.displayStringTextFormat = "sent %p pk (%l)"
*.host7.app[7].messageLength = 15B
*.host7.app[7].sendInterval = 1ms
*.host7.app[7].startTime = 73ms
*.host7.app[7].stopTime = 84ms
*.host7.app[7].display-name = "type2_7"
*.host7.app[7].destPort = 1002
*.host7.app[8].typename = "UdpBasicApp"
*.host7.app[8].destAddresses = "host8"
*.host7.app[8].source.packetNameFormat = "%M-%m-%c"
*.host7.app[8].source.displayStringTextFormat = "sent %p pk (%l)"
*.host7.app[8].messageLength = 15B
*.host7.app[8].sendInterval = 1ms
*.host7.app[8].startTime = 89ms
*.host7.app[8].stopTime = 90ms
*.host7.app[8].display-name = "type2_7"
*.host7.app[8].destPort = 1002
*.host7.app[9].typename = "UdpBasicApp"
*.host7.app[9].destAddresses = "host8"
*.host7.app[9].source.packetNameFormat = "%M-%m-%c"
*.host7.app[9].source.displayStringTextFormat = "sent %p pk (%l)"
*.host7.app[9].messageLength = 15B
*.host7.app[9].sendInterval = 1ms
*.host7.app[9].startTime = 91ms
*.host7.app[9].stopTime = 100ms
*.host7.app[9].display-name = "type2_7"
*.host7.app[9].destPort = 1002
*.host8.numApps = 3
*.host8.app[0].typename = "UdpSinkApp"
*.host8.app[0].io.localPort = 1000
*.host8.app[1].typename = "UdpSinkApp"
*.host8.app[1].io.localPort = 1001
*.host8.app[2].typename = "UdpSinkApp"
*.host8.app[2].io.localPort = 1002
*.host9.numApps = 18
*.host9.app[0].typename = "UdpSinkApp"
*.host9.app[0].io.localPort = 1000
*.host9.app[1].typename = "UdpBasicApp"
*.host9.app[1].destAddresses = "host8"
*.host9.app[1].source.packetNameFormat = "%M-%m-%c"
*.host9.app[1].source.displayStringTextFormat = "sent %p pk (%l)"
*.host9.app[1].messageLength = 15B
*.host9.app[1].sendInterval = 1ms
*.host9.app[1].startTime = 5ms
*.host9.app[1].stopTime = 14ms
*.host9.app[1].display-name = "type2_4"
*.host9.app[1].destPort = 1001
*.host9.app[2].typename = "UdpBasicApp"
*.host9.app[2].destAddresses = "host8"
*.host9.app[2].source.packetNameFormat = "%M-%m-%c"