[General]
network = TSN_multipath
sim-time-limit = 100ms
*.macForwardingTableConfigurator.typename = ""
*.*.hasStreamRedundancy = true
*.*.bridging.streamRelay.typename = "StreamRelayLayer"
*.*.bridging.streamCoder.typename = "StreamCoderLayer"
*.streamRedundancyConfigurator.typename = "StreamRedundancyConfigurator"
*.host0.eth[0].bitrate = 1000Mbps
*.switch0.eth[0].bitrate = 1000Mbps
*.switch0.eth[1].bitrate = 1400Mbps
*.switch0.eth[2].bitrate = 1300Mbps
*.switch0.eth[3].bitrate = 2000Mbps
*.switch0.eth[4].bitrate = 1400Mbps
*.switch0.eth[5].bitrate = 1200Mbps
*.switch0.eth[6].bitrate = 1500Mbps
*.switch0.eth[7].bitrate = 1400Mbps
*.switch0.eth[8].bitrate = 2000Mbps
*.switch0.eth[9].bitrate = 1300Mbps
*.switch0.eth[10].bitrate = 1900Mbps
*.switch0.eth[11].bitrate = 1300Mbps
*.switch0.eth[12].bitrate = 1900Mbps
*.switch0.eth[13].bitrate = 1600Mbps
*.switch0.eth[14].bitrate = 1700Mbps
*.switch0.eth[15].bitrate = 2300Mbps
*.switch0.eth[16].bitrate = 2000Mbps
*.switch0.eth[17].bitrate = 1400Mbps
*.host1.eth[0].bitrate = 1000Mbps
*.switch1.eth[0].bitrate = 1000Mbps
*.switch1.eth[1].bitrate = 1400Mbps
*.switch1.eth[2].bitrate = 1300Mbps
*.switch1.eth[3].bitrate = 1500Mbps
*.switch1.eth[4].bitrate = 1400Mbps
*.switch1.eth[5].bitrate = 2300Mbps
*.switch1.eth[6].bitrate = 1300Mbps
*.switch1.eth[7].bitrate = 1700Mbps
*.switch1.eth[8].bitrate = 1700Mbps
*.switch1.eth[9].bitrate = 1400Mbps
*.switch1.eth[10].bitrate = 2000Mbps
*.switch1.eth[11].bitrate = 2200Mbps
*.switch1.eth[12].bitrate = 2000Mbps
*.switch1.eth[13].bitrate = 2400Mbps
*.switch1.eth[14].bitrate = 2300Mbps
*.switch1.eth[15].bitrate = 2300Mbps
*.switch1.eth[16].bitrate = 2200Mbps
*.switch1.eth[17].bitrate = 2100Mbps
*.switch1.eth[18].bitrate = 1700Mbps
*.host2.eth[0].bitrate = 1000Mbps
*.switch2.eth[0].bitrate = 1000Mbps
*.switch2.eth[1].bitrate = 1300Mbps
*.switch2.eth[2].bitrate = 1300Mbps
*.switch2.eth[3].bitrate = 1300Mbps
*.switch2.eth[4].bitrate = 2000Mbps
*.switch2.eth[5].bitrate = 1700Mbps
*.switch2.eth[6].bitrate = 1900Mbps
*.switch2.eth[7].bitrate = 1200Mbps
*.switch2.eth[8].bitrate = 2400Mbps
*.switch2.eth[9].bitrate = 1900Mbps
*.switch2.eth[10].bitrate = 2300Mbps
*.switch2.eth[11].bitrate = 2000Mbps
*.switch2.eth[12].bitrate = 2000Mbps
*.switch2.eth[13].bitrate = 1400Mbps
*.switch2.eth[14].bitrate = 2100Mbps
*.switch2.eth[15].bitrate = 1800Mbps
*.switch2.eth[16].bitrate = 2100Mbps
*.switch2.eth[17].bitrate = 2200Mbps
*.switch2.eth[18].bitrate = 1800Mbps
*.switch2.eth[19].bitrate = 1400Mbps
*.switch2.eth[20].bitrate = 1200Mbps
*.switch2.eth[21].bitrate = 1800Mbps
*.switch2.eth[22].bitrate = 2000Mbps
*.switch2.eth[23].bitrate = 2200Mbps
*.switch2.eth[24].bitrate = 1200Mbps
*.switch2.eth[25].bitrate = 2300Mbps
*.switch2.eth[26].bitrate = 2000Mbps
*.switch2.eth[27].bitrate = 2200Mbps
*.switch2.eth[28].bitrate = 1600Mbps
*.switch2.eth[29].bitrate = 1200Mbps
*.switch2.eth[30].bitrate = 1900Mbps
*.switch2.eth[31].bitrate = 2200Mbps
*.host3.eth[0].bitrate = 1000Mbps
*.switch3.eth[0].bitrate = 1000Mbps
*.switch3.eth[1].bitrate = 2000Mbps
*.switch3.eth[2].bitrate = 1500Mbps
*.switch3.eth[3].bitrate = 1700Mbps
*.switch3.eth[4].bitrate = 1900Mbps
*.switch3.eth[5].bitrate = 2400Mbps
*.switch3.eth[6].bitrate = 1800Mbps
*.switch3.eth[7].bitrate = 2200Mbps
*.switch3.eth[8].bitrate = 2000Mbps
*.switch3.eth[9].bitrate = 1400Mbps
*.switch3.eth[10].bitrate = 2000Mbps
*.switch3.eth[11].bitrate = 1900Mbps
*.switch3.eth[12].bitrate = 1300Mbps
*.switch3.eth[13].bitrate = 2000Mbps
*.switch3.eth[14].bitrate = 1200Mbps
*.switch3.eth[15].bitrate = 1300Mbps
*.switch3.eth[16].bitrate = 1200Mbps
*.switch3.eth[17].bitrate = 2200Mbps
*.switch3.eth[18].bitrate = 2400Mbps
*.switch3.eth[19].bitrate = 1600Mbps
*.switch3.eth[20].bitrate = 2000Mbps
*.switch3.eth[21].bitrate = 1700Mbps
*.switch3.eth[22].bitrate = 1800Mbps
*.host4.eth[0].bitrate = 1000Mbps
*.switch4.eth[0].bitrate = 1000Mbps
*.switch4.eth[1].bitrate = 1900Mbps
*.switch4.eth[2].bitrate = 2200Mbps
*.switch4.eth[3].bitrate = 2000Mbps
*.switch4.eth[4].bitrate = 1200Mbps
*.switch4.eth[5].bitrate = 1400Mbps
*.switch4.eth[6].bitrate = 2400Mbps
*.switch4.eth[7].bitrate = 1500Mbps
*.switch4.eth[8].bitrate = 1900Mbps
*.switch4.eth[9].bitrate = 2100Mbps
*.switch4.eth[10].bitrate = 1700Mbps
*.switch4.eth[11].bitrate = 2300Mbps
*.switch4.eth[12].bitrate = 2000Mbps
*.switch4.eth[13].bitrate = 1700Mbps
*.switch4.eth[14].bitrate = 2400Mbps
*.switch4.eth[15].bitrate = 1700Mbps
*.switch4.eth[16].bitrate = 2200Mbps
*.switch4.eth[17].bitrate = 1600Mbps
*.host5.eth[0].bitrate = 1000Mbps
*.switch5.eth[0].bitrate = 1000Mbps
*.switch5.eth[1].bitrate = 2000Mbps
*.switch5.eth[2].bitrate = 2300Mbps
*.switch5.eth[3].bitrate = 2200Mbps
*.switch5.eth[4].bitrate = 2400Mbps
*.switch5.eth[5].bitrate = 2100Mbps
*.switch5.eth[6].bitrate = 1800Mbps
*.switch5.eth[7].bitrate = 1800Mbps
*.switch5.eth[8].bitrate = 1200Mbps
*.switch5.eth[9].bitrate = 2200Mbps
*.switch5.eth[10].bitrate = 2400Mbps
*.switch5.eth[11].bitrate = 1700Mbps
*.switch5.eth[12].bitrate = 2200Mbps
*.switch5.eth[13].bitrate = 1900Mbps
*.switch5.eth[14].bitrate = 2400Mbps
*.switch5.eth[15].bitrate = 1700Mbps
*.switch5.eth[16].bitrate = 1900Mbps
*.switch5.eth[17].bitrate = 1800Mbps
*.switch5.eth[18].bitrate = 2000Mbps
*.switch5.eth[19].bitrate = 1400Mbps
*.switch5.eth[20].bitrate = 1600Mbps
*.switch5.eth[21].bitrate = 2300Mbps
*.switch5.eth[22].bitrate = 1200Mbps
*.switch5.eth[23].bitrate = 2400Mbps
*.switch5.eth[24].bitrate = 1200Mbps
*.switch5.eth[25].bitrate = 1600Mbps
*.switch5.eth[26].bitrate = 2400Mbps
*.host6.eth[0].bitrate = 1000Mbps
*.switch6.eth[0].bitrate = 1000Mbps
*.switch6.eth[1].bitrate = 1400Mbps
*.switch6.eth[2].bitrate = 1200Mbps
*.switch6.eth[3].bitrate = 1400Mbps
*.switch6.eth[4].bitrate = 1800Mbps
*.switch6.eth[5].bitrate = 2400Mbps
*.switch6.eth[6].bitrate = 1600Mbps
*.switch6.eth[7].bitrate = 2100Mbps
*.switch6.eth[8].bitrate = 1800Mbps
*.switch6.eth[9].bitrate = 1900Mbps
*.host7.eth[0].bitrate = 1000Mbps
*.switch7.eth[0].bitrate = 1000Mbps
*.switch7.eth[1].bitrate = 2300Mbps
*.switch7.eth[2].bitrate = 2400Mbps
*.switch7.eth[3].bitrate = 2000Mbps
*.switch7.eth[4].bitrate = 1800Mbps
*.switch7.eth[5].bitrate = 1300Mbps
*.switch7.eth[6].bitrate = 2200Mbps
*.switch7.eth[7].bitrate = 1600Mbps
*.switch7.eth[8].bitrate = 2300Mbps
*.switch7.eth[9].bitrate = 2100Mbps
*.switch7.eth[10].bitrate = 2200Mbps
*.switch7.eth[11].bitrate = 2300Mbps
*.host8.eth[0].bitrate = 1000Mbps
*.switch8.eth[0].bitrate = 1000Mbps
*.switch8.eth[1].bitrate = 1300Mbps
*.switch8.eth[2].bitrate = 1900Mbps
*.switch8.eth[3].bitrate = 1200Mbps
*.switch8.eth[4].bitrate = 1200Mbps
*.switch8.eth[5].bitrate = 1200Mbps
*.switch8.eth[6].bitrate = 1700Mbps
*.switch8.eth[7].bitrate = 1600Mbps
*.switch8.eth[8].bitrate = 2300Mbps
*.switch8.eth[9].bitrate = 2000Mbps
*.switch8.eth[10].bitrate = 1500Mbps
*.switch8.eth[11].bitrate = 2000Mbps
*.switch8.eth[12].bitrate = 1900Mbps
*.switch8.eth[13].bitrate = 1900Mbps
*.switch8.eth[14].bitrate = 1500Mbps
*.switch8.eth[15].bitrate = 1800Mbps
*.switch8.eth[16].bitrate = 1600Mbps
*.switch8.eth[17].bitrate = 1600Mbps
*.switch8.eth[18].bitrate = 1900Mbps
*.switch8.eth[19].bitrate = 1400Mbps
*.switch8.eth[20].bitrate = 1900Mbps
*.host9.eth[0].bitrate = 1000Mbps
*.switch9.eth[0].bitrate = 1000Mbps
*.switch9.eth[1].bitrate = 1400Mbps
*.switch9.eth[2].bitrate = 1700Mbps
*.switch9.eth[3].bitrate = 2300Mbps
*.switch9.eth[4].bitrate = 2200Mbps
*.switch9.eth[5].bitrate = 2300Mbps
*.switch9.eth[6].bitrate = 1600Mbps
*.switch9.eth[7].bitrate = 2300Mbps
*.switch9.eth[8].bitrate = 2300Mbps
*.switch9.eth[9].bitrate = 1600Mbps
*.switch9.eth[10].bitrate = 2300Mbps
*.switch9.eth[11].bitrate = 1400Mbps
*.switch9.eth[12].bitrate = 1600Mbps
*.switch9.eth[13].bitrate = 2300Mbps
*.switch9.eth[14].bitrate = 1600Mbps
*.switch9.eth[15].bitrate = 2400Mbps
*.switch9.eth[16].bitrate = 2100Mbps
*.switch9.eth[17].bitrate = 2000Mbps
*.switch9.eth[18].bitrate = 2300Mbps
*.switch9.eth[19].bitrate = 2300Mbps
*.switch9.eth[20].bitrate = 1800Mbps
*.switch9.eth[21].bitrate = 2400Mbps
*.switch9.eth[22].bitrate = 2200Mbps
*.switch9.eth[23].bitrate = 1800Mbps
*.switch9.eth[24].bitrate = 1700Mbps
*.switch9.eth[25].bitrate = 2100Mbps
*.switch9.eth[26].bitrate = 1800Mbps
*.switch9.eth[27].bitrate = 1200Mbps
*.switch9.eth[28].bitrate = 1400Mbps
*.switch9.eth[29].bitrate = 1500Mbps
*.host10.eth[0].bitrate = 1000Mbps
*.switch10.eth[0].bitrate = 1000Mbps
*.switch10.eth[1].bitrate = 1700Mbps
*.switch10.eth[2].bitrate = 2000Mbps
*.switch10.eth[3].bitrate = 1900Mbps
*.switch10.eth[4].bitrate = 1400Mbps
*.switch10.eth[5].bitrate = 2400Mbps
*.switch10.eth[6].bitrate = 2000Mbps
*.switch10.eth[7].bitrate = 2400Mbps
*.switch10.eth[8].bitrate = 2000Mbps
*.switch10.eth[9].bitrate = 2000Mbps
*.switch10.eth[10].bitrate = 1200Mbps
*.switch10.eth[11].bitrate = 1800Mbps
*.switch10.eth[12].bitrate = 1500Mbps
*.switch10.eth[13].bitrate = 2400Mbps
*.switch10.eth[14].bitrate = 1200Mbps
*.switch10.eth[15].bitrate = 1400Mbps
*.host11.eth[0].bitrate = 1000Mbps
*.switch11.eth[0].bitrate = 1000Mbps
*.switch11.eth[1].bitrate = 1200Mbps
*.switch11.eth[2].bitrate = 2000Mbps
*.switch11.eth[3].bitrate = 1300Mbps
*.switch11.eth[4].bitrate = 2400Mbps
*.switch11.eth[5].bitrate = 2100Mbps
*.switch11.eth[6].bitrate = 1700Mbps
*.switch11.eth[7].bitrate = 2200Mbps
*.switch11.eth[8].bitrate = 2200Mbps
*.switch11.eth[9].bitrate = 2000Mbps
*.switch11.eth[10].bitrate = 1700Mbps
*.switch11.eth[11].bitrate = 1600Mbps
*.switch11.eth[12].bitrate = 2100Mbps
*.switch11.eth[13].bitrate = 1700Mbps
*.switch11.eth[14].bitrate = 2400Mbps
*.switch11.eth[15].bitrate = 1500Mbps
*.switch11.eth[16].bitrate = 1400Mbps
*.switch11.eth[17].bitrate = 1900Mbps
*.switch11.eth[18].bitrate = 1800Mbps
*.switch11.eth[19].bitrate = 2100Mbps
*.switch11.eth[20].bitrate = 1300Mbps
*.switch11.eth[21].bitrate = 1300Mbps
*.switch11.eth[22].bitrate = 1800Mbps
*.switch11.eth[23].bitrate = 2200Mbps
*.switch11.eth[24].bitrate = 2300Mbps
*.host12.eth[0].bitrate = 1000Mbps
*.switch12.eth[0].bitrate = 1000Mbps
*.switch12.eth[1].bitrate = 1500Mbps
*.switch12.eth[2].bitrate = 1400Mbps
*.switch12.eth[3].bitrate = 2000Mbps
*.switch12.eth[4].bitrate = 2400Mbps
*.switch12.eth[5].bitrate = 1700Mbps
*.switch12.eth[6].bitrate = 1500Mbps
*.switch12.eth[7].bitrate = 2000Mbps
*.switch12.eth[8].bitrate = 1500Mbps
*.switch12.eth[9].bitrate = 1600Mbps
*.switch12.eth[10].bitrate = 1700Mbps
*.switch12.eth[11].bitrate = 1800Mbps
*.switch12.eth[12].bitrate = 1400Mbps
*.switch12.eth[13].bitrate = 1400Mbps
*.switch12.eth[14].bitrate = 1300Mbps
*.host13.eth[0].bitrate = 1000Mbps
*.switch13.eth[0].bitrate = 1000Mbps
*.switch13.eth[1].bitrate = 1400Mbps
*.switch13.eth[2].bitrate = 2100Mbps
*.switch13.eth[3].bitrate = 1200Mbps
*.switch13.eth[4].bitrate = 1500Mbps
*.switch13.eth[5].bitrate = 2200Mbps
*.switch13.eth[6].bitrate = 1300Mbps
*.switch13.eth[7].bitrate = 2000Mbps
*.switch13.eth[8].bitrate = 1200Mbps
*.switch13.eth[9].bitrate = 1400Mbps
*.switch13.eth[10].bitrate = 1800Mbps
*.switch13.eth[11].bitrate = 2400Mbps
*.switch13.eth[12].bitrate = 2300Mbps
*.switch13.eth[13].bitrate = 2100Mbps
*.switch13.eth[14].bitrate = 1600Mbps
*.switch13.eth[15].bitrate = 1300Mbps
*.switch13.eth[16].bitrate = 1600Mbps
*.switch13.eth[17].bitrate = 1700Mbps
*.switch13.eth[18].bitrate = 2300Mbps
*.switch13.eth[19].bitrate = 1800Mbps
*.host14.eth[0].bitrate = 1000Mbps
*.switch14.eth[0].bitrate = 1000Mbps
*.switch14.eth[1].bitrate = 2000Mbps
*.switch14.eth[2].bitrate = 1800Mbps
*.switch14.eth[3].bitrate = 1900Mbps
*.switch14.eth[4].bitrate = 2300Mbps
*.switch14.eth[5].bitrate = 1800Mbps
*.switch14.eth[6].bitrate = 1900Mbps
*.switch14.eth[7].bitrate = 1300Mbps
*.switch14.eth[8].bitrate = 2300Mbps
*.switch14.eth[9].bitrate = 2100Mbps
*.switch14.eth[10].bitrate = 1200Mbps
*.switch14.eth[11].bitrate = 2200Mbps
*.switch14.eth[12].bitrate = 1900Mbps
*.switch14.eth[13].bitrate = 2100Mbps
*.switch14.eth[14].bitrate = 1200Mbps
*.switch14.eth[15].bitrate = 1300Mbps
*.switch14.eth[16].bitrate = 1700Mbps
*.switch14.eth[17].bitrate = 2200Mbps
*.switch14.eth[18].bitrate = 2100Mbps
*.switch14.eth[19].bitrate = 1500Mbps
*.switch14.eth[20].bitrate = 2100Mbps
*.switch14.eth[21].bitrate = 1900Mbps
*.switch14.eth[22].bitrate = 1200Mbps
*.switch14.eth[23].bitrate = 1700Mbps
*.host15.eth[0].bitrate = 1000Mbps
*.switch15.eth[0].bitrate = 1000Mbps
*.switch15.eth[1].bitrate = 1300Mbps
*.switch15.eth[2].bitrate = 1400Mbps
*.switch15.eth[3].bitrate = 2100Mbps
*.switch15.eth[4].bitrate = 1900Mbps
*.switch15.eth[5].bitrate = 2400Mbps
*.switch15.eth[6].bitrate = 1900Mbps
*.switch15.eth[7].bitrate = 2300Mbps
*.switch15.eth[8].bitrate = 1400Mbps
*.switch15.eth[9].bitrate = 2200Mbps
*.switch15.eth[10].bitrate = 1700Mbps
*.switch15.eth[11].bitrate = 2300Mbps
*.switch15.eth[12].bitrate = 1800Mbps
*.switch15.eth[13].bitrate = 2100Mbps
*.switch15.eth[14].bitrate = 1700Mbps
*.switch15.eth[15].bitrate = 1700Mbps
*.switch15.eth[16].bitrate = 2400Mbps
*.switch15.eth[17].bitrate = 2300Mbps
*.host16.eth[0].bitrate = 1000Mbps
*.switch16.eth[0].bitrate = 1000Mbps
*.switch16.eth[1].bitrate = 2000Mbps
*.switch16.eth[2].bitrate = 2200Mbps
*.switch16.eth[3].bitrate = 1300Mbps
*.switch16.eth[4].bitrate = 1700Mbps
*.switch16.eth[5].bitrate = 1800Mbps
*.switch16.eth[6].bitrate = 2100Mbps
*.switch16.eth[7].bitrate = 2100Mbps
*.switch16.eth[8].bitrate = 1200Mbps
*.switch16.eth[9].bitrate = 2400Mbps
*.switch16.eth[10].bitrate = 1200Mbps
*.switch16.eth[11].bitrate = 1800Mbps
*.switch16.eth[12].bitrate = 1400Mbps
*.switch16.eth[13].bitrate = 1900Mbps
*.switch16.eth[14].bitrate = 1600Mbps
*.switch16.eth[15].bitrate = 1600Mbps
*.switch16.eth[16].bitrate = 1500Mbps
*.switch16.eth[17].bitrate = 2300Mbps
*.switch16.eth[18].bitrate = 1200Mbps
*.host17.eth[0].bitrate = 1000Mbps
*.switch17.eth[0].bitrate = 1000Mbps
*.switch17.eth[1].bitrate = 1900Mbps
*.switch17.eth[2].bitrate = 1800Mbps
*.switch17.eth[3].bitrate = 1900Mbps
*.switch17.eth[4].bitrate = 1900Mbps
*.switch17.eth[5].bitrate = 2400Mbps
*.switch17.eth[6].bitrate = 1500Mbps
*.switch17.eth[7].bitrate = 1800Mbps
*.switch17.eth[8].bitrate = 1500Mbps
*.switch17.eth[9].bitrate = 1600Mbps
*.switch17.eth[10].bitrate = 2000Mbps
*.switch17.eth[11].bitrate = 1700Mbps
*.switch17.eth[12].bitrate = 1900Mbps
*.switch17.eth[13].bitrate = 1800Mbps
*.switch17.eth[14].bitrate = 2200Mbps
*.switch17.eth[15].bitrate = 1200Mbps
*.switch17.eth[16].bitrate = 1800Mbps
*.switch17.eth[17].bitrate = 1400Mbps
*.switch17.eth[18].bitrate = 1400Mbps
*.switch17.eth[19].bitrate = 1400Mbps
*.switch17.eth[20].bitrate = 2200Mbps
*.switch17.eth[21].bitrate = 1300Mbps
*.switch17.eth[22].bitrate = 2300Mbps
*.switch17.eth[23].bitrate = 1200Mbps
*.switch17.eth[24].bitrate = 2400Mbps
*.switch17.eth[25].bitrate = 2300Mbps
*.switch17.eth[26].bitrate = 2100Mbps
*.switch17.eth[27].bitrate = 1500Mbps
*.switch17.eth[28].bitrate = 1700Mbps
*.host18.eth[0].bitrate = 1000Mbps
*.switch18.eth[0].bitrate = 1000Mbps
*.switch18.eth[1].bitrate = 1400Mbps
*.switch18.eth[2].bitrate = 1200Mbps
*.switch18.eth[3].bitrate = 1800Mbps
*.switch18.eth[4].bitrate = 1500Mbps
*.switch18.eth[5].bitrate = 2200Mbps
*.switch18.eth[6].bitrate = 2100Mbps
*.switch18.eth[7].bitrate = 1700Mbps
*.switch18.eth[8].bitrate = 1600Mbps
*.switch18.eth[9].bitrate = 1400Mbps
*.switch18.eth[10].bitrate = 2200Mbps
*.switch18.eth[11].bitrate = 1600Mbps
*.switch18.eth[12].bitrate = 1600Mbps
*.switch18.eth[13].bitrate = 1900Mbps
*.switch18.eth[14].bitrate = 1900Mbps
*.switch18.eth[15].bitrate = 1800Mbps
*.switch18.eth[16].bitrate = 1700Mbps
*.switch18.eth[17].bitrate = 2300Mbps
*.switch18.eth[18].bitrate = 1200Mbps
*.switch18.eth[19].bitrate = 1500Mbps
*.switch18.eth[20].bitrate = 2000Mbps
*.host19.eth[0].bitrate = 1000Mbps
*.switch19.eth[0].bitrate = 1000Mbps
*.switch19.eth[1].bitrate = 2200Mbps
*.switch19.eth[2].bitrate = 1200Mbps
*.switch19.eth[3].bitrate = 2200Mbps
*.switch19.eth[4].bitrate = 2000Mbps
*.switch19.eth[5].bitrate = 2200Mbps
*.switch19.eth[6].bitrate = 1800Mbps
*.switch19.eth[7].bitrate = 1800Mbps
*.switch19.eth[8].bitrate = 1300Mbps
*.switch19.eth[9].bitrate = 1600Mbps
*.switch19.eth[10].bitrate = 2100Mbps
*.switch19.eth[11].bitrate = 1700Mbps
*.switch19.eth[12].bitrate = 1500Mbps
*.switch19.eth[13].bitrate = 2100Mbps
*.switch19.eth[14].bitrate = 2000Mbps
*.switch19.eth[15].bitrate = 2400Mbps
*.switch19.eth[16].bitrate = 1500Mbps
*.switch19.eth[17].bitrate = 2300Mbps
*.switch19.eth[18].bitrate = 1700Mbps
*.host0.numApps = 4
*.host0.app[0].typename = "UdpSourceApp"
*.host0.app[0].io.destAddress = "host12"
*.host0.app[0].source.packetNameFormat = "%M-%m-%c"
*.host0.app[0].source.displayStringTextFormat = "sent %p pk (%l)"
*.host0.app[0].source.packetLength = 17B
*.host0.app[0].source.productionInterval = 1ms
*.host0.app[0].display-name = "type1_3"
*.host0.app[0].io.destPort = 1001
*.host0.app[1].typename = "UdpSinkApp"
*.host0.app[1].io.localPort = 1000
*.host0.app[2].typename = "UdpBasicApp"
*.host0.app[2].destAddresses = "host18"
*.host0.app[2].source.packetNameFormat = "%M-%m-%c"
*.host0.app[2].source.displayStringTextFormat = "sent %p pk (%l)"
*.host0.app[2].messageLength = 16B
*.host0.app[2].sendInterval = 1ms
*.host0.app[2].startTime = 8ms
*.host0.app[2].stopTime = 69ms
*.host0.app[2].display-name = "type2_13"
*.host0.app[2].destPort = 1000
*.host0.app[3].typename = "UdpBasicApp"
*.host0.app[3].destAddresses = "host18"
*.host0.app[3].source.packetNameFormat = "%M-%m-%c"
*.host0.app[3].source.displayStringTextFormat = "sent %p pk (%l)"
*.host0.app[3].messageLength = 16B
*.host0.app[3].sendInterval = 1ms
*.host0.app[3].startTime = 90ms
*.host0.app[3].stopTime = 100ms
*.host0.app[3].display-name = "type2_13"
*.host0.app[3].destPort = 1000
*.host1.numApps = 7
*.host1.app[0].typename = "UdpSinkApp"
*.host1.app[0].io.localPort = 1000
*.host1.app[1].typename = "UdpBasicApp"
*.host1.app[1].destAddresses = "host6"
*.host1.app[1].source.packetNameFormat = "%M-%m-%c"
*.host1.app[1].source.displayStringTextFormat = "sent %p pk (%l)"
*.host1.app[1].messageLength = 13B
*.host1.app[1].sendInterval = 1ms
*.host1.app[1].startTime = 3ms
*.host1.app[1].stopTime = 11ms
*.host1.app[1].display-name = "type2_1"
*.host1.app[1].destPort = 1001
*.host1.app[2].typename = "UdpBasicApp"
*.host1.app[2].destAddresses = "host6"
*.host1.app[2].source.packetNameFormat = "%M-%m-%c"
*.host1.app[2].source.displayStringTextFormat = "sent %p pk (%l)"
*.host1.app[2].messageLength = 13B
*.host1.app[2].sendInterval = 1ms
*.host1.app[2].startTime = 12ms
*.host1.app[2].stopTime = 21ms
*.host1.app[2].display-name = "type2_1"
*.host1.app[2].destPort = 1001
*.host1.app[3].typename = "UdpBasicApp"
*.host1.app[3].destAddresses = "host6"
*.host1.app[3].source.packetNameFormat = "%M-%m-%c"
*.host1.app[3].source.displayStringTextFormat = "sent %p pk (%l)"
*.host1.app[3].messageLength = 13B
*.host1.app[3].sendInterval = 1ms
*.host1.app[3].startTime = 31ms
*.host1.app[3].stopTime = 61ms
*.host1.app[3].display-name = "type2_1"
*.host1.app[3].destPort = 1001
*.host1.app[4].typename = "UdpBasicApp"
*.host1.app[4].destAddresses = "host6"
*.host1.app[4].source.packetNameFormat = "%M-%m-%c"
*.host1.app[4].source.displayStringTextFormat = "sent %p pk (%l)"
*.host1.app[4].messageLength = 13B
*.host1.app[4].sendInterval = 1ms
*.host1.app[4].startTime = 73ms
*.host1.app[4].stopTime = 84ms
*.host1.app[4].display-name = "type2_1"
*.host1.app[4].destPort = 1001
*.host1.app[5].typename = "UdpBasicApp"
*.host1.app[5].destAddresses = "host6"
*.host1.app[5].source.packetNameFormat = "%M-%m-%c"
*.host1.app[5].source.displayStringTextFormat = "sent %p pk (%l)"
*.host1.app[5].messageLength = 13B
*.host1.app[5].sendInterval = 1ms
*.host1.app[5].startTime = 98ms
*.host1.app[5].stopTime = 100ms
*.host1.app[5].display-name = "type2_1"
*.host1.app[5].destPort = 1001
*.host1.app[6].typename = "UdpSinkApp"
*.host1.app[6].io.localPort = 1001
*.host2.numApps = 2
*.host2.app[0].typename = "UdpSinkApp"
*.host2.app[0].io.localPort = 1000
*.host2.app[1].typename = "UdpSinkApp"
*.host2.app[1].io.localPort = 1001
*.host3.numApps = 1
*.host3.app[0].typename = "UdpSinkApp"
*.host3.app[0].io.localPort = 1000
*.host4.numApps = 1
*.host4.app[0].typename = "UdpSinkApp"
*.host4.app[0].io.localPort = 1000
*.host5.numApps = 12
*.host5.app[0].typename = "UdpSourceApp"
*.host5.app[0].io.destAddress = "host1"
*.host5.app[0].source.packetNameFormat = "%M-%m-%c"
*.host5.app[0].source.displayStringTextFormat = "sent %p pk (%l)"
*.host5.app[0].source.packetLength = 20B
*.host5.app[0].source.productionInterval = 1ms
*.host5.app[0].display-name = "type1_4"
*.host5.app[0].io.destPort = 1000
*.host5.app[1].typename = "UdpBasicApp"
*.host5.app[1].destAddresses = "host9"
*.host5.app[1].source.packetNameFormat = "%M-%m-%c"
*.host5.app[1].source.displayStringTextFormat = "sent %p pk (%l)"
*.host5.app[1].messageLength = 14B
*.host5.app[1].sendInterval = 1ms
*.host5.app[1].startTime = 6ms
*.host5.app[1].stopTime = 7ms
*.host5.app[1].display-name = "type2_2"
*.host5.app[1].destPort = 1000
*.host5.app[2].typename = "UdpBasicApp"
*.host5.app[2].destAddresses = "host9"
*.host5.app[2].source.packetNameFormat = "%M-%m-%c"
*.host5.app[2].source.displayStringTextFormat = "sent %p pk (%l)"
*.host5.app[2].messageLength = 14B
*.host5.app[2].sendInterval = 1ms
*.host5.app[2].startTime = 9ms
*.host5.app[2].stopTime = 23ms
*.host5.app[2].display-name = "type2_2"
*.host5.app[2].destPort = 1000
*.host5.app[3].typename = "UdpBasicApp"
*.host5.app[3].destAddresses = "host9"
*.host5.app[3].source.packetNameFormat = "%M-%m-%c"
*.host5.app[3].source.displayStringTextFormat = "sent %p pk (%l)"
*.host5.app[3].messageLength = 14B
*.host5.app[3].sendInterval = 1ms
*.host5.app[3].startTime = 26ms
*.host5.app[3].stopTime = 33ms
*.host5.app[3].display-name = "type2_2"
*.host5.app[3].destPort = 1000
*.host5.app[4].typename = "UdpBasicApp"
*.host5.app[4].destAddresses = "host9"
*.host5.app[4].source.packetNameFormat = "%M-%m-%c"
*.host5.app[4].source.displayStringTextFormat = "sent %p pk (%l)"
*.host5.app[4].messageLength = 14B
*.host5.app[4].sendInterval = 1ms
*.host5.app[4].startTime = 36ms
*.host5.app[4].stopTime = 38ms
*.host5.app[4].display-name = "type2_2"
*.host5.app[4].destPort = 1000
*.host5.app[5].typename = "UdpBasicApp"
*.host5.app[5].destAddresses = "host9"
*.host5.app[5].source.packetNameFormat = "%M-%m-%c"
*.host5.app[5].source.displayStringTextFormat = "sent %p pk (%l)"
*.host5.app[5].messageLength = 14B
*.host5.app[5].sendInterval = 1ms
*.host5.app[5].startTime = 39ms
*.host5.app[5].stopTime = 51ms
*.host5.app[5].display-name = "type2_2"
*.host5.app[5].destPort = 1000
*.host5.app[6].typename = "UdpBasicApp"
*.host5.app[6].destAddresses = "host9"
*.host5.app[6].source.packetNameFormat = "%M-%m-%c"
*.host5.app[6].source.displayStringTextFormat = "sent %p pk (%l)"
*.host5.app[6].messageLength = 14B
*.host5.app[6].sendInterval = 1ms
*.host5.app[6].startTime = 57ms
*.host5.app[6].stopTime = 63ms
*.host5.app[6].display-name = "type2_2"
*.host5.app[6].destPort = 1000
*.host5.app[7].typename = "UdpBasicApp"
*.host5.app[7].destAddresses = "host9"
*.host5.app[7].source.packetNameFormat = "%M-%m-%c"
*.host5.app[7].source.displayStringTextFormat = "sent %p pk (%l)"
*.host5.app[7].messageLength = 14B
*.host5.app[7].sendInterval = 1ms
*.host5.app[7].startTime = 68ms
*.host5.app[7].stopTime = 76ms
*.host5.app[7].display-name = "type2_2"
*.host5.app[7].destPort = 1000
*.host5.app[8].typename = "UdpBasicApp"
*.host5.app[8].destAddresses = "host9"
*.host5.app[8].source.packetNameFormat = "%M-%m-%c"
*.host5.app[8].source.displayStringTextFormat = "sent %p pk (%l)"
*.host5.app[8].messageLength = 14B
*.host5.app[8].sendInterval = 1ms
*.host5.app[8].startTime = 81ms
*.host5.app[8].stopTime = 85ms
*.host5.app[8].display-name = "type2_2"
*.host5.app[8].destPort = 1000
*.host5.app[9].typename = "UdpBasicApp"
*.host5.app[9].destAddresses = "host9"
*.host5.app[9].source.packetNameFormat = "%M-%m-%c"
*.host5.app[9].source.displayStringTextFormat = "sent %p pk (%l)"
*.host5.app[9].messageLength = 14B
*.host5.app[9].sendInterval = 1ms
*.host5.app[9].startTime = 97ms
*.host5.app[9].stopTime = 100ms
*.host5.app[9].display-name = "type2_2"
*.host5.app[9].destPort = 1000
*.host5.app[10].typename = "UdpSinkApp"
*.host5.app[10].io.localPort = 1000
*.host5.app[11].typename = "UdpSinkApp"
*.host5.app[11].io.localPort = 1001
*.host6.numApps = 4
*.host6.app[0].typename = "UdpSinkApp"
*.host6.app[0].io.localPort = 1000
*.host6.app[1].typename = "UdpSinkApp"
*.host6.app[1].io.localPort = 1001
*.host6.app[2].typename = "UdpBasicApp"
*.host6.app[2].destAddresses = "host1"
*.host6.app[2].source.packetNameFormat = "%M-%m-%c"
*.host6.app[2].source.displayStringTextFormat = "sent %p pk (%l)"
*.host6.app[2].messageLength = 23B
*.host6.app[2].sendInterval = 1ms
*.host6.app[2].startTime = 4ms
*.host6.app[2].stopTime = 17ms
*.host6.app[2].display-name = "type2_10"
*.host6.app[2].destPort = 1001
*.host6.app[3].typename = "UdpBasicApp"
*.host6.app[3].destAddresses = "host1"
*.host6.app[3].source.packetNameFormat = "%M-%m-%c"
*.host6.app[3].source.displayStringTextFormat = "sent %p pk (%l)"
*.host6.app[3].messageLength = 23B
*.host6.app[3].sendInterval = 1ms
*.host6.app[3].startTime = 47ms
*.host6.app[3].stopTime = 49ms
*.host6.app[3].display-name = "type2_10"
*.host6.app[3].destPort = 1001
*.host7.numApps = 8
*.host7.app[0].typename = "UdpSourceApp"
*.host7.app[0].io.destAddress = "host2"
*.host7.app[0].source.packetNameFormat = "%M-%m-%c"
*.host7.app[0].source.displayStringTextFormat = "sent %p pk (%l)"
*.host7.app[0].source.packetLength = 13B
*.host7.app[0].source.productionInterval = 1ms
*.host7.app[0].display-name = "type1_5"
*.host7.app[0].io.destPort = 1000
*.host7.app[1].typename = "UdpBasicApp"
*.host7.app[1].destAddresses = "host12"
*.host7.app[1].source.packetNameFormat = "%M-%m-%c"
*.host7.app[1].source.displayStringTextFormat = "sent %p pk (%l)"
*.host7.app[1].messageLength = 15B
*.host7.app[1].sendInterval = 1ms
*.host7.app[1].startTime = 9ms
*.host7.app[1].stopTime = 11ms
*.host7.app[1].display-name = "type2_17"
*.host7.app[1].destPort = 1003
*.host7.app[2].typename = "UdpBasicApp"
*.host7.app[2].destAddresses = "host12"
*.host7.app[2].source.packetNameFormat = "%M-%m-%c"
*.host7.app[2].source.displayStringTextFormat = "sent %p pk (%l)"
*.host7.app[2].messageLength = 15B
*.host7.app[2].sendInterval = 1ms
*.host7.app[2].startTime = 13ms
*.host7.app[2].stopTime = 17ms
*.host7.app[2].display-name = "type2_17"
*.host7.app[2].destPort = 1003
*.host7.app[3].typename = "UdpBasicApp"
*.host7.app[3].destAddresses = "host12"
*.host7.app[3].source.packetNameFormat = "%M-%m-%c"
*.host7.app[3].source.displayStringTextFormat = "sent %p pk (%l)"
*.host7.app[3].messageLength = 15B
*.host7.app[3].sendInterval = 1ms
*.host7.app[3].startTime = 24ms
*.host7.app[3].stopTime = 28ms
*.host7.app[3].display-name = "type2_17"
*.host7.app[3].destPort = 1003
*.host7.app[4].typename = "UdpBasicApp"
*.host7.app[4].destAddresses = "host12"
*.host7.app[4].source.packetNameFormat = "%M-%m-%c"
*.host7.app[4].source.displayStringTextFormat = "sent %p pk (%l)"
*.host7.app[4].messageLength = 15B
*.host7.app[4].sendInterval = 1ms
*.host7.app[4].startTime = 36ms
*.host7.app[4].stopTime = 41ms
*.host7.app[4].display-name = "type2_17"
*.host7.app[4].destPort = 1003
*.host7.app[5].typename = "UdpBasicApp"
*.host7.app[5].destAddresses = "host12"
*.host7.app[5].source.packetNameFormat = "%M-%m-%c"
*.host7.app[5].source.displayStringTextFormat = "sent %p pk (%l)"
*.host7.app[5].messageLength = 15B
*.host7.app[5].sendInterval = 1ms
*.host7.app[5].startTime = 45ms
*.host7.app[5].stopTime = 67ms
*.host7.app[5].display-name = "type2_17"
*.host7.app[5].destPort = 1003
*.host7.app[6].typename = "UdpBasicApp"
*.host7.app[6].destAddresses = "host12"
*.host7.app[6].source.packetNameFormat = "%M-%m-%c"
*.host7.app[6].source.displayStringTextFormat = "sent %p pk (%l)"
*.host7.app[6].messageLength = 15B
*.host7.app[6].sendInterval = 1ms
*.host7.app[6].startTime = 70ms
*.host7.app[6].stopTime = 80ms
*.host7.app[6].display-name = "type2_17"
*.host7.app[6].destPort = 1003
*.host7.app[7].typename = "UdpBasicApp"
*.host7.app[7].destAddresses = "host12"
*.host7.app[7].source.packetNameFormat = "%M-%m-%c"
*.host7.app[7].source.displayStringTextFormat = "sent %p pk (%l)"
*.host7.app[7].messageLength = 15B
*.host7.app[7].sendInterval = 1ms
*.host7.app[7].startTime = 82ms
*.host7.app[7].stopTime = 91ms
*.host7.app[7].display-name = "type2_17"
*.host7.app[7].destPort = 1003
*.host8.numApps = 9
*.host8.app[0].typename = "UdpSourceApp"
*.host8.app[0].io.destAddress = "host12"
*.host8.app[0].source.packetNameFormat = "%M-%m-%c"
*.host8.app[0].source.displayStringTextFormat = "sent %p pk (%l)"
*.host8.app[0].source.packetLength = 22B
*.host8.app[0].source.productionInterval = 1ms
*.host8.app[0].display-name = "type1_0"
*.host8.app[0].io.destPort = 1000
*.host8.app[1].typename = "UdpBasicApp"
*.host8.app[1].destAddresses = "host14"
*.host8.app[1].source.packetNameFormat = "%M-%m-%c"
*.host8.app[1].source.displayStringTextFormat = "sent %p pk (%l)"
*.host8.app[1].messageLength = 12B
*.host8.app[1].sendInterval = 1ms
*.host8.app[1].startTime = 0ms
*.host8.app[1].stopTime = 3ms
*.host8.app[1].display-name = "type2_7"
*.host8.app[1].destPort = 1000
*.host8.app[2].typename = "UdpBasicApp"
*.host8.app[2].destAddresses = "host14"
*.host8.app[2].source.packetNameFormat = "%M-%m-%c"
*.host8.app[2].source.displayStringTextFormat = "sent %p pk (%l)"
*.host8.app[2].messageLength = 12B
*.host8.app[2].sendInterval = 1ms
*.host8.app[2].startTime = 13ms
*.host8.app[2].stopTime = 17ms
*.host8.app[2].display-name = "type2_7"
*.host8.app[2].destPort = 1000
*.host8.app[3].typename = "UdpBasicApp"
*.host8.app[3].destAddresses = "host14"
*.host8.app[3].source.packetNameFormat = "%M-%m-%c"
*.host8.app[3].source.displayStringTextFormat = "sent %p pk (%l)"
*.host8.app[3].messageLength = 12B
*.host8.app[3].sendInterval = 1ms
*.host8.app[3].startTime = 19ms
*.host8.app[3].stopTime = 33ms