
[General]
network = TSN_multipath
sim-time-limit = 10ms

# disable automatic MAC forwarding table configuration
*.macForwardingTableConfigurator.typename = ""

# enable frame replication and elimination
*.*.hasStreamRedundancy = true

# enable stream policing in layer 2
*.*.bridging.streamRelay.typename = "StreamRelayLayer"
*.*.bridging.streamCoder.typename = "StreamCoderLayer"

# enable automatic stream redundancy configurator
*.streamRedundancyConfigurator.typename = "StreamRedundancyConfigurator"

*.host0.eth[0].bitrate = 100Mbps
*.switch0.eth[0].bitrate = 100Mbps
*.switch0.eth[1].bitrate = 220Mbps
*.switch0.eth[2].bitrate = 120Mbps
*.switch0.eth[3].bitrate = 130Mbps
*.switch0.eth[4].bitrate = 240Mbps
*.switch0.eth[5].bitrate = 160Mbps
*.switch0.eth[6].bitrate = 180Mbps
*.switch0.eth[7].bitrate = 120Mbps
*.switch0.eth[8].bitrate = 120Mbps
*.switch0.eth[9].bitrate = 130Mbps
*.switch0.eth[10].bitrate = 170Mbps
*.switch0.eth[11].bitrate = 170Mbps
*.switch0.eth[12].bitrate = 170Mbps
*.switch0.eth[13].bitrate = 230Mbps
*.switch0.eth[14].bitrate = 120Mbps
*.switch0.eth[15].bitrate = 120Mbps
*.switch0.eth[16].bitrate = 240Mbps
*.switch0.eth[17].bitrate = 150Mbps
*.switch0.eth[18].bitrate = 140Mbps
*.switch0.eth[19].bitrate = 140Mbps
*.switch0.eth[20].bitrate = 130Mbps
*.switch0.eth[21].bitrate = 180Mbps
*.switch0.eth[22].bitrate = 180Mbps
*.switch0.eth[23].bitrate = 160Mbps
*.switch0.eth[24].bitrate = 240Mbps
*.switch0.eth[25].bitrate = 220Mbps
*.switch0.eth[26].bitrate = 230Mbps
*.host1.eth[0].bitrate = 100Mbps
*.switch1.eth[0].bitrate = 100Mbps
*.switch1.eth[1].bitrate = 220Mbps
*.switch1.eth[2].bitrate = 170Mbps
*.switch1.eth[3].bitrate = 230Mbps
*.switch1.eth[4].bitrate = 190Mbps
*.switch1.eth[5].bitrate = 240Mbps
*.switch1.eth[6].bitrate = 230Mbps
*.switch1.eth[7].bitrate = 190Mbps
*.switch1.eth[8].bitrate = 240Mbps
*.switch1.eth[9].bitrate = 120Mbps
*.switch1.eth[10].bitrate = 130Mbps
*.switch1.eth[11].bitrate = 140Mbps
*.switch1.eth[12].bitrate = 180Mbps
*.switch1.eth[13].bitrate = 170Mbps
*.switch1.eth[14].bitrate = 220Mbps
*.switch1.eth[15].bitrate = 120Mbps
*.switch1.eth[16].bitrate = 130Mbps
*.switch1.eth[17].bitrate = 210Mbps
*.host2.eth[0].bitrate = 100Mbps
*.switch2.eth[0].bitrate = 100Mbps
*.switch2.eth[1].bitrate = 120Mbps
*.switch2.eth[2].bitrate = 160Mbps
*.switch2.eth[3].bitrate = 220Mbps
*.switch2.eth[4].bitrate = 220Mbps
*.switch2.eth[5].bitrate = 210Mbps
*.switch2.eth[6].bitrate = 190Mbps
*.switch2.eth[7].bitrate = 210Mbps
*.switch2.eth[8].bitrate = 200Mbps
*.switch2.eth[9].bitrate = 240Mbps
*.switch2.eth[10].bitrate = 190Mbps
*.switch2.eth[11].bitrate = 170Mbps
*.switch2.eth[12].bitrate = 240Mbps
*.switch2.eth[13].bitrate = 170Mbps
*.switch2.eth[14].bitrate = 190Mbps
*.switch2.eth[15].bitrate = 190Mbps
*.switch2.eth[16].bitrate = 230Mbps
*.switch2.eth[17].bitrate = 240Mbps
*.host3.eth[0].bitrate = 100Mbps
*.switch3.eth[0].bitrate = 100Mbps
*.switch3.eth[1].bitrate = 130Mbps
*.switch3.eth[2].bitrate = 240Mbps
*.switch3.eth[3].bitrate = 190Mbps
*.switch3.eth[4].bitrate = 220Mbps
*.switch3.eth[5].bitrate = 230Mbps
*.switch3.eth[6].bitrate = 230Mbps
*.switch3.eth[7].bitrate = 220Mbps
*.switch3.eth[8].bitrate = 150Mbps
*.switch3.eth[9].bitrate = 230Mbps
*.switch3.eth[10].bitrate = 240Mbps
*.switch3.eth[11].bitrate = 240Mbps
*.switch3.eth[12].bitrate = 160Mbps
*.switch3.eth[13].bitrate = 230Mbps
*.switch3.eth[14].bitrate = 210Mbps
*.switch3.eth[15].bitrate = 160Mbps
*.switch3.eth[16].bitrate = 220Mbps
*.switch3.eth[17].bitrate = 210Mbps
*.switch3.eth[18].bitrate = 120Mbps
*.switch3.eth[19].bitrate = 120Mbps
*.switch3.eth[20].bitrate = 190Mbps
*.switch3.eth[21].bitrate = 120Mbps
*.switch3.eth[22].bitrate = 210Mbps
*.switch3.eth[23].bitrate = 170Mbps
*.switch3.eth[24].bitrate = 240Mbps
*.switch3.eth[25].bitrate = 180Mbps
*.switch3.eth[26].bitrate = 160Mbps
*.switch3.eth[27].bitrate = 220Mbps
*.switch3.eth[28].bitrate = 210Mbps
*.switch3.eth[29].bitrate = 240Mbps
*.switch3.eth[30].bitrate = 210Mbps
*.switch3.eth[31].bitrate = 180Mbps
*.switch3.eth[32].bitrate = 230Mbps
*.switch3.eth[33].bitrate = 150Mbps
*.host4.eth[0].bitrate = 100Mbps
*.switch4.eth[0].bitrate = 100Mbps
*.switch4.eth[1].bitrate = 230Mbps
*.switch4.eth[2].bitrate = 150Mbps
*.switch4.eth[3].bitrate = 240Mbps
*.switch4.eth[4].bitrate = 220Mbps
*.switch4.eth[5].bitrate = 180Mbps
*.switch4.eth[6].bitrate = 200Mbps
*.switch4.eth[7].bitrate = 170Mbps
*.switch4.eth[8].bitrate = 180Mbps
*.switch4.eth[9].bitrate = 160Mbps
*.switch4.eth[10].bitrate = 160Mbps
*.switch4.eth[11].bitrate = 240Mbps
*.switch4.eth[12].bitrate = 160Mbps
*.switch4.eth[13].bitrate = 150Mbps
*.switch4.eth[14].bitrate = 240Mbps
*.switch4.eth[15].bitrate = 140Mbps
*.switch4.eth[16].bitrate = 220Mbps
*.switch4.eth[17].bitrate = 160Mbps
*.switch4.eth[18].bitrate = 220Mbps
*.switch4.eth[19].bitrate = 200Mbps
*.switch4.eth[20].bitrate = 190Mbps
*.switch4.eth[21].bitrate = 140Mbps
*.switch4.eth[22].bitrate = 170Mbps
*.switch4.eth[23].bitrate = 200Mbps
*.switch4.eth[24].bitrate = 240Mbps
*.switch4.eth[25].bitrate = 200Mbps
*.switch4.eth[26].bitrate = 160Mbps
*.switch4.eth[27].bitrate = 120Mbps
*.switch4.eth[28].bitrate = 220Mbps
*.switch4.eth[29].bitrate = 160Mbps
*.switch4.eth[30].bitrate = 240Mbps
*.switch4.eth[31].bitrate = 170Mbps
*.switch4.eth[32].bitrate = 210Mbps
*.host5.eth[0].bitrate = 100Mbps
*.switch5.eth[0].bitrate = 100Mbps
*.switch5.eth[1].bitrate = 240Mbps
*.switch5.eth[2].bitrate = 170Mbps
*.switch5.eth[3].bitrate = 230Mbps
*.switch5.eth[4].bitrate = 200Mbps
*.switch5.eth[5].bitrate = 210Mbps
*.switch5.eth[6].bitrate = 160Mbps
*.switch5.eth[7].bitrate = 220Mbps
*.switch5.eth[8].bitrate = 210Mbps
*.switch5.eth[9].bitrate = 160Mbps
*.switch5.eth[10].bitrate = 230Mbps
*.switch5.eth[11].bitrate = 160Mbps
*.switch5.eth[12].bitrate = 150Mbps
*.switch5.eth[13].bitrate = 190Mbps
*.switch5.eth[14].bitrate = 220Mbps
*.switch5.eth[15].bitrate = 180Mbps
*.switch5.eth[16].bitrate = 140Mbps
*.switch5.eth[17].bitrate = 120Mbps
*.switch5.eth[18].bitrate = 130Mbps
*.switch5.eth[19].bitrate = 220Mbps
*.switch5.eth[20].bitrate = 180Mbps
*.switch5.eth[21].bitrate = 120Mbps
*.switch5.eth[22].bitrate = 240Mbps
*.switch5.eth[23].bitrate = 150Mbps
*.switch5.eth[24].bitrate = 180Mbps
*.host6.eth[0].bitrate = 100Mbps
*.switch6.eth[0].bitrate = 100Mbps
*.switch6.eth[1].bitrate = 220Mbps
*.switch6.eth[2].bitrate = 170Mbps
*.switch6.eth[3].bitrate = 140Mbps
*.switch6.eth[4].bitrate = 120Mbps
*.switch6.eth[5].bitrate = 190Mbps
*.switch6.eth[6].bitrate = 130Mbps
*.switch6.eth[7].bitrate = 210Mbps
*.switch6.eth[8].bitrate = 220Mbps
*.switch6.eth[9].bitrate = 150Mbps
*.switch6.eth[10].bitrate = 130Mbps
*.switch6.eth[11].bitrate = 210Mbps
*.switch6.eth[12].bitrate = 190Mbps
*.switch6.eth[13].bitrate = 120Mbps
*.switch6.eth[14].bitrate = 120Mbps
*.switch6.eth[15].bitrate = 210Mbps
*.switch6.eth[16].bitrate = 120Mbps
*.switch6.eth[17].bitrate = 230Mbps
*.switch6.eth[18].bitrate = 210Mbps
*.switch6.eth[19].bitrate = 140Mbps
*.switch6.eth[20].bitrate = 150Mbps
*.host7.eth[0].bitrate = 100Mbps
*.switch7.eth[0].bitrate = 100Mbps
*.switch7.eth[1].bitrate = 160Mbps
*.switch7.eth[2].bitrate = 150Mbps
*.switch7.eth[3].bitrate = 180Mbps
*.switch7.eth[4].bitrate = 220Mbps
*.switch7.eth[5].bitrate = 140Mbps
*.switch7.eth[6].bitrate = 210Mbps
*.switch7.eth[7].bitrate = 150Mbps
*.switch7.eth[8].bitrate = 190Mbps
*.switch7.eth[9].bitrate = 210Mbps
*.switch7.eth[10].bitrate = 180Mbps
*.switch7.eth[11].bitrate = 180Mbps
*.switch7.eth[12].bitrate = 210Mbps
*.switch7.eth[13].bitrate = 140Mbps
*.switch7.eth[14].bitrate = 120Mbps
*.switch7.eth[15].bitrate = 120Mbps
*.switch7.eth[16].bitrate = 180Mbps
*.switch7.eth[17].bitrate = 120Mbps
*.switch7.eth[18].bitrate = 240Mbps
*.switch7.eth[19].bitrate = 210Mbps
*.switch7.eth[20].bitrate = 200Mbps
*.switch7.eth[21].bitrate = 230Mbps
*.switch7.eth[22].bitrate = 140Mbps
*.host8.eth[0].bitrate = 100Mbps
*.switch8.eth[0].bitrate = 100Mbps
*.switch8.eth[1].bitrate = 180Mbps
*.switch8.eth[2].bitrate = 230Mbps
*.switch8.eth[3].bitrate = 230Mbps
*.switch8.eth[4].bitrate = 160Mbps
*.switch8.eth[5].bitrate = 150Mbps
*.switch8.eth[6].bitrate = 200Mbps
*.switch8.eth[7].bitrate = 170Mbps
*.switch8.eth[8].bitrate = 140Mbps
*.switch8.eth[9].bitrate = 120Mbps
*.switch8.eth[10].bitrate = 190Mbps
*.switch8.eth[11].bitrate = 130Mbps
*.switch8.eth[12].bitrate = 190Mbps
*.switch8.eth[13].bitrate = 190Mbps
*.switch8.eth[14].bitrate = 220Mbps
*.host9.eth[0].bitrate = 100Mbps
*.switch9.eth[0].bitrate = 100Mbps
*.switch9.eth[1].bitrate = 240Mbps
*.switch9.eth[2].bitrate = 210Mbps
*.switch9.eth[3].bitrate = 210Mbps
*.switch9.eth[4].bitrate = 190Mbps
*.switch9.eth[5].bitrate = 240Mbps
*.switch9.eth[6].bitrate = 220Mbps
*.switch9.eth[7].bitrate = 120Mbps
*.switch9.eth[8].bitrate = 120Mbps
*.switch9.eth[9].bitrate = 240Mbps
*.switch9.eth[10].bitrate = 140Mbps
*.switch9.eth[11].bitrate = 120Mbps
*.switch9.eth[12].bitrate = 230Mbps
*.switch9.eth[13].bitrate = 170Mbps
*.switch9.eth[14].bitrate = 150Mbps
*.switch9.eth[15].bitrate = 240Mbps
*.switch9.eth[16].bitrate = 220Mbps
*.host10.eth[0].bitrate = 100Mbps
*.switch10.eth[0].bitrate = 100Mbps
*.switch10.eth[1].bitrate = 120Mbps
*.switch10.eth[2].bitrate = 190Mbps
*.switch10.eth[3].bitrate = 240Mbps
*.switch10.eth[4].bitrate = 160Mbps
*.switch10.eth[5].bitrate = 160Mbps
*.switch10.eth[6].bitrate = 220Mbps
*.switch10.eth[7].bitrate = 240Mbps
*.switch10.eth[8].bitrate = 130Mbps
*.switch10.eth[9].bitrate = 190Mbps
*.switch10.eth[10].bitrate = 200Mbps
*.switch10.eth[11].bitrate = 180Mbps
*.switch10.eth[12].bitrate = 170Mbps
*.switch10.eth[13].bitrate = 130Mbps
*.switch10.eth[14].bitrate = 150Mbps
*.switch10.eth[15].bitrate = 210Mbps
*.switch10.eth[16].bitrate = 180Mbps
*.switch10.eth[17].bitrate = 180Mbps
*.switch10.eth[18].bitrate = 240Mbps
*.switch10.eth[19].bitrate = 220Mbps
*.switch10.eth[20].bitrate = 160Mbps
*.switch10.eth[21].bitrate = 150Mbps
*.switch10.eth[22].bitrate = 210Mbps
*.host11.eth[0].bitrate = 100Mbps
*.switch11.eth[0].bitrate = 100Mbps
*.switch11.eth[1].bitrate = 160Mbps
*.switch11.eth[2].bitrate = 240Mbps
*.switch11.eth[3].bitrate = 230Mbps
*.switch11.eth[4].bitrate = 120Mbps
*.switch11.eth[5].bitrate = 180Mbps
*.switch11.eth[6].bitrate = 220Mbps
*.switch11.eth[7].bitrate = 170Mbps
*.switch11.eth[8].bitrate = 150Mbps
*.switch11.eth[9].bitrate = 220Mbps
*.switch11.eth[10].bitrate = 140Mbps
*.switch11.eth[11].bitrate = 170Mbps
*.switch11.eth[12].bitrate = 160Mbps
*.switch11.eth[13].bitrate = 170Mbps
*.switch11.eth[14].bitrate = 210Mbps
*.switch11.eth[15].bitrate = 200Mbps
*.host12.eth[0].bitrate = 100Mbps
*.switch12.eth[0].bitrate = 100Mbps
*.switch12.eth[1].bitrate = 120Mbps
*.switch12.eth[2].bitrate = 230Mbps
*.switch12.eth[3].bitrate = 160Mbps
*.switch12.eth[4].bitrate = 160Mbps
*.switch12.eth[5].bitrate = 150Mbps
*.switch12.eth[6].bitrate = 130Mbps
*.switch12.eth[7].bitrate = 140Mbps
*.switch12.eth[8].bitrate = 170Mbps
*.switch12.eth[9].bitrate = 220Mbps
*.switch12.eth[10].bitrate = 180Mbps
*.switch12.eth[11].bitrate = 120Mbps
*.switch12.eth[12].bitrate = 140Mbps
*.switch12.eth[13].bitrate = 120Mbps
*.switch12.eth[14].bitrate = 150Mbps
*.switch12.eth[15].bitrate = 180Mbps
*.switch12.eth[16].bitrate = 210Mbps
*.switch12.eth[17].bitrate = 220Mbps
*.switch12.eth[18].bitrate = 200Mbps
*.switch12.eth[19].bitrate = 170Mbps
*.switch12.eth[20].bitrate = 170Mbps
*.switch12.eth[21].bitrate = 120Mbps
*.switch12.eth[22].bitrate = 160Mbps
*.switch12.eth[23].bitrate = 240Mbps
*.switch12.eth[24].bitrate = 220Mbps
*.switch12.eth[25].bitrate = 170Mbps
*.switch12.eth[26].bitrate = 140Mbps
*.switch12.eth[27].bitrate = 160Mbps
*.switch12.eth[28].bitrate = 180Mbps
*.switch12.eth[29].bitrate = 120Mbps
*.switch12.eth[30].bitrate = 200Mbps
*.host13.eth[0].bitrate = 100Mbps
*.switch13.eth[0].bitrate = 100Mbps
*.switch13.eth[1].bitrate = 130Mbps
*.switch13.eth[2].bitrate = 210Mbps
*.switch13.eth[3].bitrate = 150Mbps
*.switch13.eth[4].bitrate = 150Mbps
*.switch13.eth[5].bitrate = 210Mbps
*.switch13.eth[6].bitrate = 140Mbps
*.switch13.eth[7].bitrate = 180Mbps
*.switch13.eth[8].bitrate = 180Mbps
*.switch13.eth[9].bitrate = 180Mbps
*.switch13.eth[10].bitrate = 240Mbps
*.switch13.eth[11].bitrate = 210Mbps
*.switch13.eth[12].bitrate = 160Mbps
*.switch13.eth[13].bitrate = 120Mbps
*.switch13.eth[14].bitrate = 210Mbps
*.switch13.eth[15].bitrate = 240Mbps
*.switch13.eth[16].bitrate = 180Mbps
*.switch13.eth[17].bitrate = 220Mbps
*.switch13.eth[18].bitrate = 120Mbps
*.switch13.eth[19].bitrate = 210Mbps
*.switch13.eth[20].bitrate = 200Mbps
*.switch13.eth[21].bitrate = 150Mbps
*.switch13.eth[22].bitrate = 120Mbps
*.switch13.eth[23].bitrate = 230Mbps
*.switch13.eth[24].bitrate = 130Mbps
*.switch13.eth[25].bitrate = 220Mbps
*.switch13.eth[26].bitrate = 130Mbps
*.switch13.eth[27].bitrate = 240Mbps
*.switch13.eth[28].bitrate = 170Mbps
*.switch13.eth[29].bitrate = 190Mbps
*.switch13.eth[30].bitrate = 120Mbps
*.host14.eth[0].bitrate = 100Mbps
*.switch14.eth[0].bitrate = 100Mbps
*.switch14.eth[1].bitrate = 170Mbps
*.switch14.eth[2].bitrate = 160Mbps
*.switch14.eth[3].bitrate = 240Mbps
*.switch14.eth[4].bitrate = 180Mbps
*.switch14.eth[5].bitrate = 210Mbps
*.switch14.eth[6].bitrate = 120Mbps
*.switch14.eth[7].bitrate = 180Mbps
*.switch14.eth[8].bitrate = 240Mbps
*.switch14.eth[9].bitrate = 140Mbps
*.switch14.eth[10].bitrate = 130Mbps
*.switch14.eth[11].bitrate = 120Mbps
*.switch14.eth[12].bitrate = 240Mbps
*.switch14.eth[13].bitrate = 240Mbps
*.switch14.eth[14].bitrate = 150Mbps
*.switch14.eth[15].bitrate = 150Mbps
*.switch14.eth[16].bitrate = 180Mbps
*.switch14.eth[17].bitrate = 150Mbps
*.switch14.eth[18].bitrate = 160Mbps
*.switch14.eth[19].bitrate = 130Mbps
*.switch14.eth[20].bitrate = 160Mbps
*.switch14.eth[21].bitrate = 140Mbps
*.switch14.eth[22].bitrate = 190Mbps
*.host15.eth[0].bitrate = 100Mbps
*.switch15.eth[0].bitrate = 100Mbps
*.switch15.eth[1].bitrate = 220Mbps
*.switch15.eth[2].bitrate = 140Mbps
*.switch15.eth[3].bitrate = 190Mbps
*.switch15.eth[4].bitrate = 220Mbps
*.switch15.eth[5].bitrate = 120Mbps
*.switch15.eth[6].bitrate = 160Mbps
*.switch15.eth[7].bitrate = 170Mbps
*.switch15.eth[8].bitrate = 170Mbps
*.switch15.eth[9].bitrate = 240Mbps
*.switch15.eth[10].bitrate = 120Mbps
*.switch15.eth[11].bitrate = 240Mbps
*.switch15.eth[12].bitrate = 210Mbps
*.switch15.eth[13].bitrate = 120Mbps
*.switch15.eth[14].bitrate = 230Mbps
*.switch15.eth[15].bitrate = 220Mbps
*.switch15.eth[16].bitrate = 170Mbps
*.switch15.eth[17].bitrate = 170Mbps
*.switch15.eth[18].bitrate = 220Mbps
*.switch15.eth[19].bitrate = 130Mbps
*.switch15.eth[20].bitrate = 220Mbps
*.switch15.eth[21].bitrate = 170Mbps
*.switch15.eth[22].bitrate = 150Mbps
*.switch15.eth[23].bitrate = 140Mbps
*.switch15.eth[24].bitrate = 130Mbps
*.switch15.eth[25].bitrate = 170Mbps
*.switch15.eth[26].bitrate = 240Mbps
*.switch15.eth[27].bitrate = 180Mbps
*.switch15.eth[28].bitrate = 240Mbps
*.switch15.eth[29].bitrate = 120Mbps
*.switch15.eth[30].bitrate = 160Mbps
*.switch15.eth[31].bitrate = 160Mbps
*.host16.eth[0].bitrate = 100Mbps
*.switch16.eth[0].bitrate = 100Mbps
*.switch16.eth[1].bitrate = 240Mbps
*.switch16.eth[2].bitrate = 210Mbps
*.switch16.eth[3].bitrate = 220Mbps
*.switch16.eth[4].bitrate = 180Mbps
*.switch16.eth[5].bitrate = 240Mbps
*.switch16.eth[6].bitrate = 220Mbps
*.switch16.eth[7].bitrate = 240Mbps
*.switch16.eth[8].bitrate = 220Mbps
*.switch16.eth[9].bitrate = 190Mbps
*.switch16.eth[10].bitrate = 210Mbps
*.switch16.eth[11].bitrate = 220Mbps
*.switch16.eth[12].bitrate = 120Mbps
*.switch16.eth[13].bitrate = 200Mbps
*.switch16.eth[14].bitrate = 190Mbps
*.switch16.eth[15].bitrate = 170Mbps
*.switch16.eth[16].bitrate = 160Mbps
*.switch16.eth[17].bitrate = 160Mbps
*.switch16.eth[18].bitrate = 140Mbps
*.switch16.eth[19].bitrate = 130Mbps
*.switch16.eth[20].bitrate = 160Mbps
*.switch16.eth[21].bitrate = 240Mbps
*.switch16.eth[22].bitrate = 230Mbps
*.switch16.eth[23].bitrate = 120Mbps
*.switch16.eth[24].bitrate = 220Mbps
*.switch16.eth[25].bitrate = 210Mbps
*.switch16.eth[26].bitrate = 170Mbps
*.switch16.eth[27].bitrate = 230Mbps
*.switch16.eth[28].bitrate = 180Mbps
*.switch16.eth[29].bitrate = 230Mbps
*.switch16.eth[30].bitrate = 160Mbps
*.switch16.eth[31].bitrate = 170Mbps
*.host17.eth[0].bitrate = 100Mbps
*.switch17.eth[0].bitrate = 100Mbps
*.switch17.eth[1].bitrate = 170Mbps
*.switch17.eth[2].bitrate = 160Mbps
*.switch17.eth[3].bitrate = 220Mbps
*.switch17.eth[4].bitrate = 130Mbps
*.switch17.eth[5].bitrate = 200Mbps
*.switch17.eth[6].bitrate = 210Mbps
*.switch17.eth[7].bitrate = 170Mbps
*.switch17.eth[8].bitrate = 230Mbps
*.switch17.eth[9].bitrate = 220Mbps
*.switch17.eth[10].bitrate = 120Mbps
*.switch17.eth[11].bitrate = 190Mbps
*.switch17.eth[12].bitrate = 180Mbps
*.switch17.eth[13].bitrate = 160Mbps
*.switch17.eth[14].bitrate = 230Mbps
*.switch17.eth[15].bitrate = 130Mbps
*.switch17.eth[16].bitrate = 150Mbps
*.switch17.eth[17].bitrate = 150Mbps
*.switch17.eth[18].bitrate = 170Mbps
*.switch17.eth[19].bitrate = 160Mbps
*.switch17.eth[20].bitrate = 240Mbps
*.switch17.eth[21].bitrate = 140Mbps
*.switch17.eth[22].bitrate = 120Mbps
*.switch17.eth[23].bitrate = 230Mbps
*.switch17.eth[24].bitrate = 210Mbps
*.switch17.eth[25].bitrate = 230Mbps
*.switch17.eth[26].bitrate = 130Mbps
*.switch17.eth[27].bitrate = 210Mbps
*.switch17.eth[28].bitrate = 230Mbps
*.switch17.eth[29].bitrate = 210Mbps
*.switch17.eth[30].bitrate = 210Mbps
*.host18.eth[0].bitrate = 100Mbps
*.switch18.eth[0].bitrate = 100Mbps
*.switch18.eth[1].bitrate = 170Mbps
*.switch18.eth[2].bitrate = 120Mbps
*.switch18.eth[3].bitrate = 220Mbps
*.switch18.eth[4].bitrate = 170Mbps
*.switch18.eth[5].bitrate = 200Mbps
*.switch18.eth[6].bitrate = 240Mbps
*.switch18.eth[7].bitrate = 150Mbps
*.switch18.eth[8].bitrate = 120Mbps
*.switch18.eth[9].bitrate = 210Mbps
*.switch18.eth[10].bitrate = 230Mbps
*.switch18.eth[11].bitrate = 150Mbps
*.switch18.eth[12].bitrate = 230Mbps
*.switch18.eth[13].bitrate = 190Mbps
*.switch18.eth[14].bitrate = 210Mbps
*.switch18.eth[15].bitrate = 180Mbps
*.switch18.eth[16].bitrate = 170Mbps
*.switch18.eth[17].bitrate = 160Mbps
*.switch18.eth[18].bitrate = 210Mbps
*.switch18.eth[19].bitrate = 220Mbps
*.switch18.eth[20].bitrate = 190Mbps
*.switch18.eth[21].bitrate = 130Mbps
*.switch18.eth[22].bitrate = 220Mbps
*.switch18.eth[23].bitrate = 180Mbps
*.switch18.eth[24].bitrate = 180Mbps
*.host19.eth[0].bitrate = 100Mbps
*.switch19.eth[0].bitrate = 100Mbps
*.switch19.eth[1].bitrate = 230Mbps
*.switch19.eth[2].bitrate = 120Mbps
*.switch19.eth[3].bitrate = 200Mbps
*.switch19.eth[4].bitrate = 180Mbps
*.switch19.eth[5].bitrate = 180Mbps
*.switch19.eth[6].bitrate = 150Mbps
*.switch19.eth[7].bitrate = 170Mbps
*.switch19.eth[8].bitrate = 150Mbps
*.switch19.eth[9].bitrate = 150Mbps
*.switch19.eth[10].bitrate = 140Mbps
*.switch19.eth[11].bitrate = 220Mbps
*.switch19.eth[12].bitrate = 230Mbps
*.switch19.eth[13].bitrate = 220Mbps
*.switch19.eth[14].bitrate = 230Mbps
*.switch19.eth[15].bitrate = 220Mbps
*.switch19.eth[16].bitrate = 230Mbps
*.switch19.eth[17].bitrate = 200Mbps
*.host20.eth[0].bitrate = 100Mbps
*.switch20.eth[0].bitrate = 100Mbps
*.switch20.eth[1].bitrate = 120Mbps
*.switch20.eth[2].bitrate = 190Mbps
*.switch20.eth[3].bitrate = 190Mbps
*.switch20.eth[4].bitrate = 210Mbps
*.switch20.eth[5].bitrate = 210Mbps
*.switch20.eth[6].bitrate = 220Mbps
*.switch20.eth[7].bitrate = 120Mbps
*.switch20.eth[8].bitrate = 120Mbps
*.switch20.eth[9].bitrate = 150Mbps
*.switch20.eth[10].bitrate = 130Mbps
*.switch20.eth[11].bitrate = 210Mbps
*.switch20.eth[12].bitrate = 190Mbps
*.switch20.eth[13].bitrate = 230Mbps
*.switch20.eth[14].bitrate = 130Mbps
*.switch20.eth[15].bitrate = 190Mbps
*.switch20.eth[16].bitrate = 240Mbps
*.switch20.eth[17].bitrate = 240Mbps
*.switch20.eth[18].bitrate = 160Mbps
*.host21.eth[0].bitrate = 100Mbps
*.switch21.eth[0].bitrate = 100Mbps
*.switch21.eth[1].bitrate = 120Mbps
*.switch21.eth[2].bitrate = 120Mbps
*.switch21.eth[3].bitrate = 140Mbps
*.switch21.eth[4].bitrate = 140Mbps
*.switch21.eth[5].bitrate = 130Mbps
*.switch21.eth[6].bitrate = 140Mbps
*.switch21.eth[7].bitrate = 180Mbps
*.switch21.eth[8].bitrate = 160Mbps
*.switch21.eth[9].bitrate = 180Mbps
*.switch21.eth[10].bitrate = 170Mbps
*.switch21.eth[11].bitrate = 170Mbps
*.switch21.eth[12].bitrate = 130Mbps
*.switch21.eth[13].bitrate = 240Mbps
*.switch21.eth[14].bitrate = 240Mbps
*.switch21.eth[15].bitrate = 170Mbps
*.host22.eth[0].bitrate = 100Mbps
*.switch22.eth[0].bitrate = 100Mbps
*.switch22.eth[1].bitrate = 230Mbps
*.switch22.eth[2].bitrate = 160Mbps
*.switch22.eth[3].bitrate = 210Mbps
*.switch22.eth[4].bitrate = 170Mbps
*.switch22.eth[5].bitrate = 210Mbps
*.switch22.eth[6].bitrate = 240Mbps
*.switch22.eth[7].bitrate = 210Mbps
*.switch22.eth[8].bitrate = 130Mbps
*.switch22.eth[9].bitrate = 170Mbps
*.switch22.eth[10].bitrate = 180Mbps
*.switch22.eth[11].bitrate = 210Mbps
*.switch22.eth[12].bitrate = 210Mbps
*.switch22.eth[13].bitrate = 120Mbps
*.switch22.eth[14].bitrate = 130Mbps
*.switch22.eth[15].bitrate = 230Mbps
*.host23.eth[0].bitrate = 100Mbps
*.switch23.eth[0].bitrate = 100Mbps
*.switch23.eth[1].bitrate = 170Mbps
*.switch23.eth[2].bitrate = 200Mbps
*.switch23.eth[3].bitrate = 170Mbps
*.switch23.eth[4].bitrate = 220Mbps
*.switch23.eth[5].bitrate = 150Mbps
*.switch23.eth[6].bitrate = 240Mbps
*.switch23.eth[7].bitrate = 230Mbps
*.switch23.eth[8].bitrate = 230Mbps
*.switch23.eth[9].bitrate = 150Mbps
*.switch23.eth[10].bitrate = 140Mbps
*.switch23.eth[11].bitrate = 200Mbps
*.switch23.eth[12].bitrate = 190Mbps
*.switch23.eth[13].bitrate = 160Mbps
*.switch23.eth[14].bitrate = 180Mbps
*.switch23.eth[15].bitrate = 180Mbps
*.host24.eth[0].bitrate = 100Mbps
*.switch24.eth[0].bitrate = 100Mbps
*.switch24.eth[1].bitrate = 240Mbps
*.switch24.eth[2].bitrate = 240Mbps
*.switch24.eth[3].bitrate = 120Mbps
*.switch24.eth[4].bitrate = 190Mbps
*.switch24.eth[5].bitrate = 120Mbps
*.switch24.eth[6].bitrate = 230Mbps
*.switch24.eth[7].bitrate = 160Mbps
*.switch24.eth[8].bitrate = 180Mbps
*.switch24.eth[9].bitrate = 180Mbps
*.switch24.eth[10].bitrate = 210Mbps
*.switch24.eth[11].bitrate = 130Mbps
*.switch24.eth[12].bitrate = 230Mbps
*.switch24.eth[13].bitrate = 210Mbps
*.switch24.eth[14].bitrate = 240Mbps
*.switch24.eth[15].bitrate = 210Mbps
*.switch24.eth[16].bitrate = 150Mbps
*.switch24.eth[17].bitrate = 140Mbps
*.switch24.eth[18].bitrate = 220Mbps
*.switch24.eth[19].bitrate = 220Mbps
*.switch24.eth[20].bitrate = 200Mbps
*.switch24.eth[21].bitrate = 120Mbps
*.switch24.eth[22].bitrate = 190Mbps
*.switch24.eth[23].bitrate = 160Mbps
*.switch24.eth[24].bitrate = 170Mbps
*.switch24.eth[25].bitrate = 180Mbps
*.switch24.eth[26].bitrate = 200Mbps
*.switch24.eth[27].bitrate = 160Mbps
*.switch24.eth[28].bitrate = 170Mbps
*.switch24.eth[29].bitrate = 230Mbps
*.switch24.eth[30].bitrate = 180Mbps

# Apps
*.host0.numApps = 1
*.host0.app[0].typename = "UdpSourceApp"
*.host0.app[0].io.destAddress = "host3"
*.host0.app[0].source.packetNameFormat = "%M-%m-%c"
*.host0.app[0].source.displayStringTextFormat = "sent %p pk (%l)"
*.host0.app[0].source.packetLength = 22B
*.host0.app[0].source.productionInterval = 100us
*.host0.app[0].display-name = "type2_10"
*.host0.app[0].io.destPort = 1000

*.host3.numApps = 1
*.host3.app[0].typename = "UdpSinkApp"
*.host3.app[0].io.localPort = 1000

# seamless stream redundancy configuration
*.streamRedundancyConfigurator.configuration = [
    {
        name: "shortest_path", 
        packetFilter: "*-type2_10-*", 
        source: "host0", 
        destination: "host3",
        trees: [[["host0", "switch0", "switch3", "host3"]]]
    }]
