[General]
network = TSN_multipath
sim-time-limit = 100ms
*.macForwardingTableConfigurator.typename = ""
*.*.hasStreamRedundancy = true
*.*.bridging.streamRelay.typename = "StreamRelayLayer"
*.*.bridging.streamCoder.typename = "StreamCoderLayer"
*.streamRedundancyConfigurator.typename = "StreamRedundancyConfigurator"
*.host0.eth[0].bitrate = 1000Mbps
*.switch0.eth[0].bitrate = 1000Mbps
*.switch0.eth[1].bitrate = 2100Mbps
*.switch0.eth[2].bitrate = 2100Mbps
*.switch0.eth[3].bitrate = 1900Mbps
*.switch0.eth[4].bitrate = 2200Mbps
*.switch0.eth[5].bitrate = 2000Mbps
*.switch0.eth[6].bitrate = 1200Mbps
*.switch0.eth[7].bitrate = 1400Mbps
*.host1.eth[0].bitrate = 1000Mbps
*.switch1.eth[0].bitrate = 1000Mbps
*.switch1.eth[1].bitrate = 1700Mbps
*.switch1.eth[2].bitrate = 2200Mbps
*.switch1.eth[3].bitrate = 1600Mbps
*.switch1.eth[4].bitrate = 2000Mbps
*.switch1.eth[5].bitrate = 2200Mbps
*.switch1.eth[6].bitrate = 2400Mbps
*.host2.eth[0].bitrate = 1000Mbps
*.switch2.eth[0].bitrate = 1000Mbps
*.switch2.eth[1].bitrate = 1700Mbps
*.switch2.eth[2].bitrate = 2200Mbps
*.switch2.eth[3].bitrate = 1200Mbps
*.switch2.eth[4].bitrate = 2100Mbps
*.switch2.eth[5].bitrate = 2300Mbps
*.switch2.eth[6].bitrate = 2200Mbps
*.switch2.eth[7].bitrate = 2300Mbps
*.switch2.eth[8].bitrate = 1300Mbps
*.host3.eth[0].bitrate = 1000Mbps
*.switch3.eth[0].bitrate = 1000Mbps
*.switch3.eth[1].bitrate = 2100Mbps
*.switch3.eth[2].bitrate = 2200Mbps
*.switch3.eth[3].bitrate = 1200Mbps
*.switch3.eth[4].bitrate = 2000Mbps
*.switch3.eth[5].bitrate = 2400Mbps
*.switch3.eth[6].bitrate = 1200Mbps
*.switch3.eth[7].bitrate = 2400Mbps
*.switch3.eth[8].bitrate = 2200Mbps
*.switch3.eth[9].bitrate = 2100Mbps
*.switch3.eth[10].bitrate = 1700Mbps
*.host4.eth[0].bitrate = 1000Mbps
*.switch4.eth[0].bitrate = 1000Mbps
*.switch4.eth[1].bitrate = 2400Mbps
*.switch4.eth[2].bitrate = 1200Mbps
*.switch4.eth[3].bitrate = 2400Mbps
*.switch4.eth[4].bitrate = 1600Mbps
*.switch4.eth[5].bitrate = 1500Mbps
*.switch4.eth[6].bitrate = 1800Mbps
*.switch4.eth[7].bitrate = 1300Mbps
*.switch4.eth[8].bitrate = 1900Mbps
*.host5.eth[0].bitrate = 1000Mbps
*.switch5.eth[0].bitrate = 1000Mbps
*.switch5.eth[1].bitrate = 2100Mbps
*.switch5.eth[2].bitrate = 1600Mbps
*.switch5.eth[3].bitrate = 2400Mbps
*.switch5.eth[4].bitrate = 2300Mbps
*.switch5.eth[5].bitrate = 2200Mbps
*.switch5.eth[6].bitrate = 1700Mbps
*.switch5.eth[7].bitrate = 2200Mbps
*.switch5.eth[8].bitrate = 2000Mbps
*.host6.eth[0].bitrate = 1000Mbps
*.switch6.eth[0].bitrate = 1000Mbps
*.switch6.eth[1].bitrate = 1900Mbps
*.switch6.eth[2].bitrate = 2200Mbps
*.switch6.eth[3].bitrate = 1300Mbps
*.switch6.eth[4].bitrate = 1500Mbps
*.switch6.eth[5].bitrate = 1300Mbps
*.host7.eth[0].bitrate = 1000Mbps
*.switch7.eth[0].bitrate = 1000Mbps
*.switch7.eth[1].bitrate = 2000Mbps
*.switch7.eth[2].bitrate = 1600Mbps
*.switch7.eth[3].bitrate = 1700Mbps
*.switch7.eth[4].bitrate = 1400Mbps
*.switch7.eth[5].bitrate = 2300Mbps
*.switch7.eth[6].bitrate = 2100Mbps
*.switch7.eth[7].bitrate = 1900Mbps
*.switch7.eth[8].bitrate = 2200Mbps
*.switch7.eth[9].bitrate = 1300Mbps
*.switch7.eth[10].bitrate = 1900Mbps
*.switch7.eth[11].bitrate = 2200Mbps
*.switch7.eth[12].bitrate = 1900Mbps
*.host8.eth[0].bitrate = 1000Mbps
*.switch8.eth[0].bitrate = 1000Mbps
*.switch8.eth[1].bitrate = 2200Mbps
*.switch8.eth[2].bitrate = 2100Mbps
*.switch8.eth[3].bitrate = 1200Mbps
*.switch8.eth[4].bitrate = 1500Mbps
*.switch8.eth[5].bitrate = 1500Mbps
*.switch8.eth[6].bitrate = 1900Mbps
*.switch8.eth[7].bitrate = 2000Mbps
*.switch8.eth[8].bitrate = 1800Mbps
*.host9.eth[0].bitrate = 1000Mbps
*.switch9.eth[0].bitrate = 1000Mbps
*.switch9.eth[1].bitrate = 1800Mbps
*.switch9.eth[2].bitrate = 2200Mbps
*.switch9.eth[3].bitrate = 1300Mbps
*.switch9.eth[4].bitrate = 1700Mbps
*.switch9.eth[5].bitrate = 1900Mbps
*.switch9.eth[6].bitrate = 1800Mbps
*.host0.numApps = 1
*.host0.app[0].typename = "UdpSinkApp"
*.host0.app[0].io.localPort = 1000
*.host1.numApps = 9
*.host1.app[0].typename = "UdpSourceApp"
*.host1.app[0].io.destAddress = "host3"
*.host1.app[0].source.packetNameFormat = "%M-%m-%c"
*.host1.app[0].source.displayStringTextFormat = "sent %p pk (%l)"
*.host1.app[0].source.packetLength = 22B
*.host1.app[0].source.productionInterval = 1ms
*.host1.app[0].display-name = "type1_1"
*.host1.app[0].io.destPort = 1000
*.host1.app[1].typename = "UdpBasicApp"
*.host1.app[1].destAddresses = "host6"
*.host1.app[1].source.packetNameFormat = "%M-%m-%c"
*.host1.app[1].source.displayStringTextFormat = "sent %p pk (%l)"
*.host1.app[1].messageLength = 21B
*.host1.app[1].sendInterval = 1ms
*.host1.app[1].startTime = 10ms
*.host1.app[1].stopTime = 12ms
*.host1.app[1].display-name = "type2_0"
*.host1.app[1].destPort = 1000
*.host1.app[2].typename = "UdpBasicApp"
*.host1.app[2].destAddresses = "host6"
*.host1.app[2].source.packetNameFormat = "%M-%m-%c"
*.host1.app[2].source.displayStringTextFormat = "sent %p pk (%l)"
*.host1.app[2].messageLength = 21B
*.host1.app[2].sendInterval = 1ms
*.host1.app[2].startTime = 13ms
*.host1.app[2].stopTime = 37ms
*.host1.app[2].display-name = "type2_0"
*.host1.app[2].destPort = 1000
*.host1.app[3].typename = "UdpBasicApp"
*.host1.app[3].destAddresses = "host6"
*.host1.app[3].source.packetNameFormat = "%M-%m-%c"
*.host1.app[3].source.displayStringTextFormat = "sent %p pk (%l)"
*.host1.app[3].messageLength = 21B
*.host1.app[3].sendInterval = 1ms
*.host1.app[3].startTime = 39ms
*.host1.app[3].stopTime = 49ms
*.host1.app[3].display-name = "type2_0"
*.host1.app[3].destPort = 1000
*.host1.app[4].typename = "UdpBasicApp"
*.host1.app[4].destAddresses = "host6"
*.host1.app[4].source.packetNameFormat = "%M-%m-%c"
*.host1.app[4].source.displayStringTextFormat = "sent %p pk (%l)"
*.host1.app[4].messageLength = 21B
*.host1.app[4].sendInterval = 1ms
*.host1.app[4].startTime = 58ms
*.host1.app[4].stopTime = 61ms
*.host1.app[4].display-name = "type2_0"
*.host1.app[4].destPort = 1000
*.host1.app[5].typename = "UdpBasicApp"
*.host1.app[5].destAddresses = "host6"
*.host1.app[5].source.packetNameFormat = "%M-%m-%c"
*.host1.app[5].source.displayStringTextFormat = "sent %p pk (%l)"
*.host1.app[5].messageLength = 21B
*.host1.app[5].sendInterval = 1ms
*.host1.app[5].startTime = 64ms
*.host1.app[5].stopTime = 69ms
*.host1.app[5].display-name = "type2_0"
*.host1.app[5].destPort = 1000
*.host1.app[6].typename = "UdpBasicApp"
*.host1.app[6].destAddresses = "host6"
*.host1.app[6].source.packetNameFormat = "%M-%m-%c"
*.host1.app[6].source.displayStringTextFormat = "sent %p pk (%l)"
*.host1.app[6].messageLength = 21B
*.host1.app[6].sendInterval = 1ms
*.host1.app[6].startTime = 74ms
*.host1.app[6].stopTime = 83ms
*.host1.app[6].display-name = "type2_0"
*.host1.app[6].destPort = 1000
*.host1.app[7].typename = "UdpBasicApp"
*.host1.app[7].destAddresses = "host6"
*.host1.app[7].source.packetNameFormat = "%M-%m-%c"
*.host1.app[7].source.displayStringTextFormat = "sent %p pk (%l)"
*.host1.app[7].messageLength = 21B
*.host1.app[7].sendInterval = 1ms
*.host1.app[7].startTime = 87ms
*.host1.app[7].stopTime = 98ms
*.host1.app[7].display-name = "type2_0"
*.host1.app[7].destPort = 1000
*.host1.app[8].typename = "UdpBasicApp"
*.host1.app[8].destAddresses = "host6"
*.host1.app[8].source.packetNameFormat = "%M-%m-%c"
*.host1.app[8].source.displayStringTextFormat = "sent %p pk (%l)"
*.host1.app[8].messageLength = 21B
*.host1.app[8].sendInterval = 1ms
*.host1.app[8].startTime = 99ms
*.host1.app[8].stopTime = 100ms
*.host1.app[8].display-name = "type2_0"
*.host1.app[8].destPort = 1000
*.host2.numApps = 1
*.host2.app[0].typename = "UdpSinkApp"
*.host2.app[0].io.localPort = 1000
*.host3.numApps = 14
*.host3.app[0].typename = "UdpSourceApp"
*.host3.app[0].io.destAddress = "host7"
*.host3.app[0].source.packetNameFormat = "%M-%m-%c"
*.host3.app[0].source.displayStringTextFormat = "sent %p pk (%l)"
*.host3.app[0].source.packetLength = 19B
*.host3.app[0].source.productionInterval = 1ms
*.host3.app[0].display-name = "type1_0"
*.host3.app[0].io.destPort = 1000
*.host3.app[1].typename = "UdpSinkApp"
*.host3.app[1].io.localPort = 1000
*.host3.app[2].typename = "UdpBasicApp"
*.host3.app[2].destAddresses = "host9"
*.host3.app[2].source.packetNameFormat = "%M-%m-%c"
*.host3.app[2].source.displayStringTextFormat = "sent %p pk (%l)"
*.host3.app[2].messageLength = 18B
*.host3.app[2].sendInterval = 1ms
*.host3.app[2].startTime = 0ms
*.host3.app[2].stopTime = 18ms
*.host3.app[2].display-name = "type2_2"
*.host3.app[2].destPort = 1001
*.host3.app[3].typename = "UdpBasicApp"
*.host3.app[3].destAddresses = "host9"
*.host3.app[3].source.packetNameFormat = "%M-%m-%c"
*.host3.app[3].source.displayStringTextFormat = "sent %p pk (%l)"
*.host3.app[3].messageLength = 18B
*.host3.app[3].sendInterval = 1ms
*.host3.app[3].startTime = 23ms
*.host3.app[3].stopTime = 25ms
*.host3.app[3].display-name = "type2_2"
*.host3.app[3].destPort = 1001
*.host3.app[4].typename = "UdpBasicApp"
*.host3.app[4].destAddresses = "host9"
*.host3.app[4].source.packetNameFormat = "%M-%m-%c"
*.host3.app[4].source.displayStringTextFormat = "sent %p pk (%l)"
*.host3.app[4].messageLength = 18B
*.host3.app[4].sendInterval = 1ms
*.host3.app[4].startTime = 30ms
*.host3.app[4].stopTime = 47ms
*.host3.app[4].display-name = "type2_2"
*.host3.app[4].destPort = 1001
*.host3.app[5].typename = "UdpBasicApp"
*.host3.app[5].destAddresses = "host9"
*.host3.app[5].source.packetNameFormat = "%M-%m-%c"
*.host3.app[5].source.displayStringTextFormat = "sent %p pk (%l)"
*.host3.app[5].messageLength = 18B
*.host3.app[5].sendInterval = 1ms
*.host3.app[5].startTime = 61ms
*.host3.app[5].stopTime = 77ms
*.host3.app[5].display-name = "type2_2"
*.host3.app[5].destPort = 1001
*.host3.app[6].typename = "UdpBasicApp"
*.host3.app[6].destAddresses = "host9"
*.host3.app[6].source.packetNameFormat = "%M-%m-%c"
*.host3.app[6].source.displayStringTextFormat = "sent %p pk (%l)"
*.host3.app[6].messageLength = 18B
*.host3.app[6].sendInterval = 1ms
*.host3.app[6].startTime = 85ms
*.host3.app[6].stopTime = 91ms
*.host3.app[6].display-name = "type2_2"
*.host3.app[6].destPort = 1001
*.host3.app[7].typename = "UdpBasicApp"
*.host3.app[7].destAddresses = "host0"
*.host3.app[7].source.packetNameFormat = "%M-%m-%c"
*.host3.app[7].source.displayStringTextFormat = "sent %p pk (%l)"
*.host3.app[7].messageLength = 23B
*.host3.app[7].sendInterval = 1ms
*.host3.app[7].startTime = 20ms
*.host3.app[7].stopTime = 29ms
*.host3.app[7].display-name = "type2_4"
*.host3.app[7].destPort = 1000
*.host3.app[8].typename = "UdpBasicApp"
*.host3.app[8].destAddresses = "host0"
*.host3.app[8].source.packetNameFormat = "%M-%m-%c"
*.host3.app[8].source.displayStringTextFormat = "sent %p pk (%l)"
*.host3.app[8].messageLength = 23B
*.host3.app[8].sendInterval = 1ms
*.host3.app[8].startTime = 33ms
*.host3.app[8].stopTime = 36ms
*.host3.app[8].display-name = "type2_4"
*.host3.app[8].destPort = 1000
*.host3.app[9].typename = "UdpBasicApp"
*.host3.app[9].destAddresses = "host0"
*.host3.app[9].source.packetNameFormat = "%M-%m-%c"
*.host3.app[9].source.displayStringTextFormat = "sent %p pk (%l)"
*.host3.app[9].messageLength = 23B
*.host3.app[9].sendInterval = 1ms
*.host3.app[9].startTime = 37ms
*.host3.app[9].stopTime = 43ms
*.host3.app[9].display-name = "type2_4"
*.host3.app[9].destPort = 1000
*.host3.app[10].typename = "UdpBasicApp"
*.host3.app[10].destAddresses = "host0"
*.host3.app[10].source.packetNameFormat = "%M-%m-%c"
*.host3.app[10].source.displayStringTextFormat = "sent %p pk (%l)"
*.host3.app[10].messageLength = 23B
*.host3.app[10].sendInterval = 1ms
*.host3.app[10].startTime = 46ms
*.host3.app[10].stopTime = 56ms
*.host3.app[10].display-name = "type2_4"
*.host3.app[10].destPort = 1000
*.host3.app[11].typename = "UdpBasicApp"
*.host3.app[11].destAddresses = "host0"
*.host3.app[11].source.packetNameFormat = "%M-%m-%c"
*.host3.app[11].source.displayStringTextFormat = "sent %p pk (%l)"
*.host3.app[11].messageLength = 23B
*.host3.app[11].sendInterval = 1ms
*.host3.app[11].startTime = 63ms
*.host3.app[11].stopTime = 69ms
*.host3.app[11].display-name = "type2_4"
*.host3.app[11].destPort = 1000
*.host3.app[12].typename = "UdpBasicApp"
*.host3.app[12].destAddresses = "host0"
*.host3.app[12].source.packetNameFormat = "%M-%m-%c"
*.host3.app[12].source.displayStringTextFormat = "sent %p pk (%l)"
*.host3.app[12].messageLength = 23B
*.host3.app[12].sendInterval = 1ms
*.host3.app[12].startTime = 75ms
*.host3.app[12].stopTime = 80ms
*.host3.app[12].display-name = "type2_4"
*.host3.app[12].destPort = 1000
*.host3.app[13].typename = "UdpBasicApp"
*.host3.app[13].destAddresses = "host0"
*.host3.app[13].source.packetNameFormat = "%M-%m-%c"
*.host3.app[13].source.displayStringTextFormat = "sent %p pk (%l)"
*.host3.app[13].messageLength = 23B
*.host3.app[13].sendInterval = 1ms
*.host3.app[13].startTime = 82ms
*.host3.app[13].stopTime = 92ms
*.host3.app[13].display-name = "type2_4"
*.host3.app[13].destPort = 1000
*.host4.numApps = 0
*.host5.numApps = 7
*.host5.app[0].typename = "UdpBasicApp"
*.host5.app[0].destAddresses = "host9"
*.host5.app[0].source.packetNameFormat = "%M-%m-%c"
*.host5.app[0].source.displayStringTextFormat = "sent %p pk (%l)"
*.host5.app[0].messageLength = 19B
*.host5.app[0].sendInterval = 1ms
*.host5.app[0].startTime = 15ms
*.host5.app[0].stopTime = 27ms
*.host5.app[0].display-name = "type2_1"
*.host5.app[0].destPort = 1000
*.host5.app[1].typename = "UdpBasicApp"
*.host5.app[1].destAddresses = "host9"
*.host5.app[1].source.packetNameFormat = "%M-%m-%c"
*.host5.app[1].source.displayStringTextFormat = "sent %p pk (%l)"
*.host5.app[1].messageLength = 19B
*.host5.app[1].sendInterval = 1ms
*.host5.app[1].startTime = 38ms
*.host5.app[1].stopTime = 44ms
*.host5.app[1].display-name = "type2_1"
*.host5.app[1].destPort = 1000
*.host5.app[2].typename = "UdpBasicApp"
*.host5.app[2].destAddresses = "host9"
*.host5.app[2].source.packetNameFormat = "%M-%m-%c"
*.host5.app[2].source.displayStringTextFormat = "sent %p pk (%l)"
*.host5.app[2].messageLength = 19B
*.host5.app[2].sendInterval = 1ms
*.host5.app[2].startTime = 60ms
*.host5.app[2].stopTime = 69ms
*.host5.app[2].display-name = "type2_1"
*.host5.app[2].destPort = 1000
*.host5.app[3].typename = "UdpBasicApp"
*.host5.app[3].destAddresses = "host9"
*.host5.app[3].source.packetNameFormat = "%M-%m-%c"
*.host5.app[3].source.displayStringTextFormat = "sent %p pk (%l)"
*.host5.app[3].messageLength = 19B
*.host5.app[3].sendInterval = 1ms
*.host5.app[3].startTime = 76ms
*.host5.app[3].stopTime = 79ms
*.host5.app[3].display-name = "type2_1"
*.host5.app[3].destPort = 1000
*.host5.app[4].typename = "UdpBasicApp"
*.host5.app[4].destAddresses = "host9"
*.host5.app[4].source.packetNameFormat = "%M-%m-%c"
*.host5.app[4].source.displayStringTextFormat = "sent %p pk (%l)"
*.host5.app[4].messageLength = 19B
*.host5.app[4].sendInterval = 1ms
*.host5.app[4].startTime = 82ms
*.host5.app[4].stopTime = 90ms
*.host5.app[4].display-name = "type2_1"
*.host5.app[4].destPort = 1000
*.host5.app[5].typename = "UdpBasicApp"
*.host5.app[5].destAddresses = "host9"
*.host5.app[5].source.packetNameFormat = "%M-%m-%c"
*.host5.app[5].source.displayStringTextFormat = "sent %p pk (%l)"
*.host5.app[5].messageLength = 19B
*.host5.app[5].sendInterval = 1ms
*.host5.app[5].startTime = 96ms
*.host5.app[5].stopTime = 100ms
*.host5.app[5].display-name = "type2_1"
*.host5.app[5].destPort = 1000
*.host5.app[6].typename = "UdpSinkApp"
*.host5.app[6].io.localPort = 1000
*.host6.numApps = 1
*.host6.app[0].typename = "UdpSinkApp"
*.host6.app[0].io.localPort = 1000
*.host7.numApps = 1
*.host7.app[0].typename = "UdpSinkApp"
*.host7.app[0].io.localPort = 1000
*.host8.numApps = 0
*.host9.numApps = 15
*.host9.app[0].typename = "UdpSinkApp"
*.host9.app[0].io.localPort = 1000
*.host9.app[1].typename = "UdpSinkApp"
*.host9.app[1].io.localPort = 1001
*.host9.app[2].typename = "UdpBasicApp"
*.host9.app[2].destAddresses = "host5"
*.host9.app[2].source.packetNameFormat = "%M-%m-%c"
*.host9.app[2].source.displayStringTextFormat = "sent %p pk (%l)"
*.host9.app[2].messageLength = 15B
*.host9.app[2].sendInterval = 1ms
*.host9.app[2].startTime = 1ms
*.host9.app[2].stopTime = 10ms
*.host9.app[2].display-name = "type2_3"
*.host9.app[2].destPort = 1000
*.host9.app[3].typename = "UdpBasicApp"
*.host9.app[3].destAddresses = "host5"
*.host9.app[3].source.packetNameFormat = "%M-%m-%c"
*.host9.app[3].source.displayStringTextFormat = "sent %p pk (%l)"
*.host9.app[3].messageLength = 15B
*.host9.app[3].sendInterval = 1ms
*.host9.app[3].startTime = 17ms
*.host9.app[3].stopTime = 22ms
*.host9.app[3].display-name = "type2_3"
*.host9.app[3].destPort = 1000
*.host9.app[4].typename = "UdpBasicApp"
*.host9.app[4].destAddresses = "host5"
*.host9.app[4].source.packetNameFormat = "%M-%m-%c"
*.host9.app[4].source.displayStringTextFormat = "sent %p pk (%l)"
*.host9.app[4].messageLength = 15B
*.host9.app[4].sendInterval = 1ms
*.host9.app[4].startTime = 27ms
*.host9.app[4].stopTime = 56ms
*.host9.app[4].display-name = "type2_3"
*.host9.app[4].destPort = 1000
*.host9.app[5].typename = "UdpBasicApp"
*.host9.app[5].destAddresses = "host5"
*.host9.app[5].source.packetNameFormat = "%M-%m-%c"
*.host9.app[5].source.displayStringTextFormat = "sent %p pk (%l)"
*.host9.app[5].messageLength = 15B
*.host9.app[5].sendInterval = 1ms
*.host9.app[5].startTime = 74ms
*.host9.app[5].stopTime = 75ms
*.host9.app[5].display-name = "type2_3"
*.host9.app[5].destPort = 1000
*.host9.app[6].typename = "UdpBasicApp"
*.host9.app[6].destAddresses = "host5"
*.host9.app[6].source.packetNameFormat = "%M-%m-%c"
*.host9.app[6].source.displayStringTextFormat = "sent %p pk (%l)"
*.host9.app[6].messageLength = 15B
*.host9.app[6].sendInterval = 1ms
*.host9.app[6].startTime = 76ms
*.host9.app[6].stopTime = 84ms
*.host9.app[6].display-name = "type2_3"
*.host9.app[6].destPort = 1000
*.host9.app[7].typename = "UdpBasicApp"
*.host9.app[7].destAddresses = "host5"
*.host9.app[7].source.packetNameFormat = "%M-%m-%c"
*.host9.app[7].source.displayStringTextFormat = "sent %p pk (%l)"
*.host9.app[7].messageLength = 15B
*.host9.app[7].sendInterval = 1ms
*.host9.app[7].startTime = 89ms
*.host9.app[7].stopTime = 92ms
*.host9.app[7].display-name = "type2_3"
*.host9.app[7].destPort = 1000
*.host9.app[8].typename = "UdpBasicApp"
*.host9.app[8].destAddresses = "host5"
*.host9.app[8].source.packetNameFormat = "%M-%m-%c"
*.host9.app[8].source.displayStringTextFormat = "sent %p pk (%l)"
*.host9.app[8].messageLength = 15B
*.host9.app[8].sendInterval = 1ms
*.host9.app[8].startTime = 93ms
*.host9.app[8].stopTime = 100ms
*.host9.app[8].display-name = "type2_3"
*.host9.app[8].destPort = 1000
*.host9.app[9].typename = "UdpBasicApp"
*.host9.app[9].destAddresses = "host2"
*.host9.app[9].source.packetNameFormat = "%M-%m-%c"
*.host9.app[9].source.displayStringTextFormat = "sent %p pk (%l)"
*.host9.app[9].messageLength = 19B
*.host9.app[9].sendInterval = 1ms
*.host9.app[9].startTime = 8ms
*.host9.app[9].stopTime = 14ms
*.host9.app[9].display-name = "type2_5"
*.host9.app[9].destPort = 1000
*.host9.app[10].typename = "UdpBasicApp"
*.host9.app[10].destAddresses = "host2"
*.host9.app[10].source.packetNameFormat = "%M-%m-%c"
*.host9.app[10].source.displayStringTextFormat = "sent %p pk (%l)"
*.host9.app[10].messageLength = 19B
*.host9.app[10].sendInterval = 1ms
*.host9.app[10].startTime = 25ms
*.host9.app[10].stopTime = 27ms
*.host9.app[10].display-name = "type2_5"
*.host9.app[10].destPort = 1000
*.host9.app[11].typename = "UdpBasicApp"
*.host9.app[11].destAddresses = "host2"
*.host9.app[11].source.packetNameFormat = "%M-%m-%c"
*.host9.app[11].source.displayStringTextFormat = "sent %p pk (%l)"
*.host9.app[11].messageLength = 19B
*.host9.app[11].sendInterval = 1ms
*.host9.app[11].startTime = 38ms
*.host9.app[11].stopTime = 42ms
*.host9.app[11].display-name = "type2_5"
*.host9.app[11].destPort = 1000
*.host9.app[12].typename = "UdpBasicApp"
*.host9.app[12].destAddresses = "host2"
*.host9.app[12].source.packetNameFormat = "%M-%m-%c"
*.host9.app[12].source.displayStringTextFormat = "sent %p pk (%l)"
*.host9.app[12].messageLength = 19B
*.host9.app[12].sendInterval = 1ms
*.host9.app[12].startTime = 59ms
*.host9.app[12].stopTime = 77ms
*.host9.app[12].display-name = "type2_5"
*.host9.app[12].destPort = 1000
*.host9.app[13].typename = "UdpBasicApp"
*.host9.app[13].destAddresses = "host2"
*.host9.app[13].source.packetNameFormat = "%M-%m-%c"
*.host9.app[13].source.displayStringTextFormat = "sent %p pk (%l)"
*.host9.app[13].messageLength = 19B
*.host9.app[13].sendInterval = 1ms
*.host9.app[13].startTime = 81ms
*.host9.app[13].stopTime = 85ms
*.host9.app[13].display-name = "type2_5"
*.host9.app[13].destPort = 1000
*.host9.app[14].typename = "UdpBasicApp"
*.host9.app[14].destAddresses = "host2"
*.host9.app[14].source.packetNameFormat = "%M-%m-%c"
*.host9.app[14].source.displayStringTextFormat = "sent %p pk (%l)"
*.host9.app[14].messageLength = 19B
*.host9.app[14].sendInterval = 1ms
*.host9.app[14].startTime = 89ms
*.host9.app[14].stopTime = 90ms
*.host9.app[14].display-name = "type2_5"
*.host9.app[14].destPort = 1000
*.streamRedundancyConfigurator.configuration = [
	{
		name: "S1-0",
		packetFilter: "*-type1_0-*",
		source: "host3",
		destination: "host7",
		trees: [[["host3",
	 "switch3",
	 "switch0",
	 "switch8",
	 "switch5",
	 "switch1",
	 "switch7",
	 "host7"]]]
	},
	{
		name: "S1-1",
		packetFilter: "*-type1_1-*",
		source: "host1",
		destination: "host3",
		trees: [[["host1", "switch1", "switch3", "host3"]]]
	},
	{
		name: "S2-0",
		packetFilter: "*-type2_0-*",
		source: "host1",
		destination: "host6",
		trees: [[["host1", "switch1", "switch7", "switch6", "host6"]]]
	},
	{
		name: "S2-1",
		packetFilter: "*-type2_1-*",
		source: "host5",
		destination: "host9",
		trees: [[["host5",
	 "switch5",
	 "switch1",
	 "switch7",
	 "switch0",
	 "switch3",
	 "switch4",
	 "switch9",
	 "host9"]]]
	},
	{
		name: "S2-2",
		packetFilter: "*-type2_2-*",
		source: "host3",
		destination: "host9",
		trees: [[["host3", "switch3", "switch4", "switch9", "host9"]]]
	},
	{
		name: "S2-3",
		packetFilter: "*-type2_3-*",
		source: "host9",
		destination: "host5",
		trees: [[["host9", "switch9", "switch2", "switch8", "switch5", "host5"]]]
	},
	{
		name: "S2-4",
		packetFilter: "*-type2_4-*",
		source: "host3",
		destination: "host0",
		trees: [[["host3", "switch3", "switch0", "host0"]]]
	},
	{
		name: "S2-5",
		packetFilter: "*-type2_5-*",
		source: "host9",
		destination: "host2",
		trees: [[["host9", "switch9", "switch2", "host2"]]]
	}]
	

