[General]
network = TSN_multipath
sim-time-limit = 10ms
*.macForwardingTableConfigurator.typename = ""
*.*.hasStreamRedundancy = true
*.*.bridging.streamRelay.typename = "StreamRelayLayer"
*.*.bridging.streamCoder.typename = "StreamCoderLayer"
*.streamRedundancyConfigurator.typename = "StreamRedundancyConfigurator"
*.host0.eth[0].bitrate = 1000Mbps
*.switch0.eth[0].bitrate = 1000Mbps
*.switch0.eth[1].bitrate = 1200Mbps
*.switch0.eth[2].bitrate = 2300Mbps
*.switch0.eth[3].bitrate = 1400Mbps
*.switch0.eth[4].bitrate = 2400Mbps
*.switch0.eth[5].bitrate = 1900Mbps
*.switch0.eth[6].bitrate = 1400Mbps
*.switch0.eth[7].bitrate = 2400Mbps
*.switch0.eth[8].bitrate = 1800Mbps
*.switch0.eth[9].bitrate = 2300Mbps
*.switch0.eth[10].bitrate = 1500Mbps
*.switch0.eth[11].bitrate = 2200Mbps
*.host1.eth[0].bitrate = 1000Mbps
*.switch1.eth[0].bitrate = 1000Mbps
*.switch1.eth[1].bitrate = 2100Mbps
*.switch1.eth[2].bitrate = 2300Mbps
*.switch1.eth[3].bitrate = 1600Mbps
*.switch1.eth[4].bitrate = 2400Mbps
*.switch1.eth[5].bitrate = 1800Mbps
*.switch1.eth[6].bitrate = 1400Mbps
*.switch1.eth[7].bitrate = 1600Mbps
*.switch1.eth[8].bitrate = 1200Mbps
*.switch1.eth[9].bitrate = 1500Mbps
*.switch1.eth[10].bitrate = 1500Mbps
*.switch1.eth[11].bitrate = 1700Mbps
*.host2.eth[0].bitrate = 1000Mbps
*.switch2.eth[0].bitrate = 1000Mbps
*.switch2.eth[1].bitrate = 2100Mbps
*.switch2.eth[2].bitrate = 1400Mbps
*.switch2.eth[3].bitrate = 2200Mbps
*.switch2.eth[4].bitrate = 2300Mbps
*.host3.eth[0].bitrate = 1000Mbps
*.switch3.eth[0].bitrate = 1000Mbps
*.switch3.eth[1].bitrate = 2300Mbps
*.switch3.eth[2].bitrate = 2400Mbps
*.switch3.eth[3].bitrate = 1500Mbps
*.switch3.eth[4].bitrate = 2000Mbps
*.switch3.eth[5].bitrate = 1900Mbps
*.switch3.eth[6].bitrate = 2000Mbps
*.switch3.eth[7].bitrate = 1600Mbps
*.switch3.eth[8].bitrate = 1700Mbps
*.switch3.eth[9].bitrate = 2100Mbps
*.host4.eth[0].bitrate = 1000Mbps
*.switch4.eth[0].bitrate = 1000Mbps
*.switch4.eth[1].bitrate = 1200Mbps
*.switch4.eth[2].bitrate = 1600Mbps
*.switch4.eth[3].bitrate = 2000Mbps
*.switch4.eth[4].bitrate = 1800Mbps
*.switch4.eth[5].bitrate = 1600Mbps
*.switch4.eth[6].bitrate = 1400Mbps
*.switch4.eth[7].bitrate = 1400Mbps
*.host5.eth[0].bitrate = 1000Mbps
*.switch5.eth[0].bitrate = 1000Mbps
*.switch5.eth[1].bitrate = 2300Mbps
*.switch5.eth[2].bitrate = 2400Mbps
*.switch5.eth[3].bitrate = 2300Mbps
*.switch5.eth[4].bitrate = 1800Mbps
*.switch5.eth[5].bitrate = 2100Mbps
*.switch5.eth[6].bitrate = 1600Mbps
*.switch5.eth[7].bitrate = 1300Mbps
*.host6.eth[0].bitrate = 1000Mbps
*.switch6.eth[0].bitrate = 1000Mbps
*.switch6.eth[1].bitrate = 1400Mbps
*.switch6.eth[2].bitrate = 1800Mbps
*.switch6.eth[3].bitrate = 1500Mbps
*.switch6.eth[4].bitrate = 1500Mbps
*.switch6.eth[5].bitrate = 1700Mbps
*.switch6.eth[6].bitrate = 1400Mbps
*.switch6.eth[7].bitrate = 1800Mbps
*.switch6.eth[8].bitrate = 1500Mbps
*.switch6.eth[9].bitrate = 1500Mbps
*.host7.eth[0].bitrate = 1000Mbps
*.switch7.eth[0].bitrate = 1000Mbps
*.switch7.eth[1].bitrate = 2400Mbps
*.switch7.eth[2].bitrate = 1400Mbps
*.switch7.eth[3].bitrate = 2200Mbps
*.switch7.eth[4].bitrate = 1900Mbps
*.switch7.eth[5].bitrate = 2100Mbps
*.switch7.eth[6].bitrate = 1400Mbps
*.switch7.eth[7].bitrate = 2100Mbps
*.switch7.eth[8].bitrate = 1500Mbps
*.switch7.eth[9].bitrate = 1800Mbps
*.host8.eth[0].bitrate = 1000Mbps
*.switch8.eth[0].bitrate = 1000Mbps
*.switch8.eth[1].bitrate = 1600Mbps
*.switch8.eth[2].bitrate = 2300Mbps
*.switch8.eth[3].bitrate = 1600Mbps
*.switch8.eth[4].bitrate = 1800Mbps
*.switch8.eth[5].bitrate = 1900Mbps
*.host9.eth[0].bitrate = 1000Mbps
*.switch9.eth[0].bitrate = 1000Mbps
*.switch9.eth[1].bitrate = 1900Mbps
*.switch9.eth[2].bitrate = 1200Mbps
*.switch9.eth[3].bitrate = 2000Mbps
*.switch9.eth[4].bitrate = 1500Mbps
*.switch9.eth[5].bitrate = 2200Mbps
*.switch9.eth[6].bitrate = 1700Mbps
*.switch9.eth[7].bitrate = 1300Mbps
*.switch9.eth[8].bitrate = 1900Mbps
*.host0.numApps = 2
*.host0.app[0].typename = "UdpSinkApp"
*.host0.app[0].io.localPort = 1000
*.host0.app[1].typename = "UdpSinkApp"
*.host0.app[1].io.localPort = 1001
*.host1.numApps = 0
*.host2.numApps = 14
*.host2.app[0].typename = "UdpSinkApp"
*.host2.app[0].io.localPort = 1000
*.host2.app[1].typename = "UdpSourceApp"
*.host2.app[1].io.destAddress = "host0"
*.host2.app[1].source.packetNameFormat = "%M-%m-%c"
*.host2.app[1].source.displayStringTextFormat = "sent %p pk (%l)"
*.host2.app[1].source.packetLength = 13B
*.host2.app[1].source.productionInterval = 1ms
*.host2.app[1].display-name = "type1_1"
*.host2.app[1].io.destPort = 1000
*.host2.app[2].typename = "UdpBasicApp"
*.host2.app[2].destAddresses = "host4"
*.host2.app[2].source.packetNameFormat = "%M-%m-%c"
*.host2.app[2].source.displayStringTextFormat = "sent %p pk (%l)"
*.host2.app[2].messageLength = 17B
*.host2.app[2].sendInterval = 1ms
*.host2.app[2].startTime = 300us
*.host2.app[2].stopTime = 1400us
*.host2.app[2].display-name = "type2_2"
*.host2.app[2].destPort = 1000
*.host2.app[3].typename = "UdpBasicApp"
*.host2.app[3].destAddresses = "host4"
*.host2.app[3].source.packetNameFormat = "%M-%m-%c"
*.host2.app[3].source.displayStringTextFormat = "sent %p pk (%l)"
*.host2.app[3].messageLength = 17B
*.host2.app[3].sendInterval = 1ms
*.host2.app[3].startTime = 2100us
*.host2.app[3].stopTime = 4000us
*.host2.app[3].display-name = "type2_2"
*.host2.app[3].destPort = 1000
*.host2.app[4].typename = "UdpBasicApp"
*.host2.app[4].destAddresses = "host4"
*.host2.app[4].source.packetNameFormat = "%M-%m-%c"
*.host2.app[4].source.displayStringTextFormat = "sent %p pk (%l)"
*.host2.app[4].messageLength = 17B
*.host2.app[4].sendInterval = 1ms
*.host2.app[4].startTime = 4900us
*.host2.app[4].stopTime = 7100us
*.host2.app[4].display-name = "type2_2"
*.host2.app[4].destPort = 1000
*.host2.app[5].typename = "UdpBasicApp"
*.host2.app[5].destAddresses = "host4"
*.host2.app[5].source.packetNameFormat = "%M-%m-%c"
*.host2.app[5].source.displayStringTextFormat = "sent %p pk (%l)"
*.host2.app[5].messageLength = 17B
*.host2.app[5].sendInterval = 1ms
*.host2.app[5].startTime = 7200us
*.host2.app[5].stopTime = 8000us
*.host2.app[5].display-name = "type2_2"
*.host2.app[5].destPort = 1000
*.host2.app[6].typename = "UdpBasicApp"
*.host2.app[6].destAddresses = "host4"
*.host2.app[6].source.packetNameFormat = "%M-%m-%c"
*.host2.app[6].source.displayStringTextFormat = "sent %p pk (%l)"
*.host2.app[6].messageLength = 17B
*.host2.app[6].sendInterval = 1ms
*.host2.app[6].startTime = 8900us
*.host2.app[6].stopTime = 9300us
*.host2.app[6].display-name = "type2_2"
*.host2.app[6].destPort = 1000
*.host2.app[7].typename = "UdpBasicApp"
*.host2.app[7].destAddresses = "host4"
*.host2.app[7].source.packetNameFormat = "%M-%m-%c"
*.host2.app[7].source.displayStringTextFormat = "sent %p pk (%l)"
*.host2.app[7].messageLength = 17B
*.host2.app[7].sendInterval = 1ms
*.host2.app[7].startTime = 9400us
*.host2.app[7].stopTime = 10000us
*.host2.app[7].display-name = "type2_2"
*.host2.app[7].destPort = 1000
*.host2.app[8].typename = "UdpBasicApp"
*.host2.app[8].destAddresses = "host3"
*.host2.app[8].source.packetNameFormat = "%M-%m-%c"
*.host2.app[8].source.displayStringTextFormat = "sent %p pk (%l)"
*.host2.app[8].messageLength = 18B
*.host2.app[8].sendInterval = 1ms
*.host2.app[8].startTime = 0us
*.host2.app[8].stopTime = 1500us
*.host2.app[8].display-name = "type2_3"
*.host2.app[8].destPort = 1000
*.host2.app[9].typename = "UdpBasicApp"
*.host2.app[9].destAddresses = "host3"
*.host2.app[9].source.packetNameFormat = "%M-%m-%c"
*.host2.app[9].source.displayStringTextFormat = "sent %p pk (%l)"
*.host2.app[9].messageLength = 18B
*.host2.app[9].sendInterval = 1ms
*.host2.app[9].startTime = 2200us
*.host2.app[9].stopTime = 2600us
*.host2.app[9].display-name = "type2_3"
*.host2.app[9].destPort = 1000
*.host2.app[10].typename = "UdpBasicApp"
*.host2.app[10].destAddresses = "host3"
*.host2.app[10].source.packetNameFormat = "%M-%m-%c"
*.host2.app[10].source.displayStringTextFormat = "sent %p pk (%l)"
*.host2.app[10].messageLength = 18B
*.host2.app[10].sendInterval = 1ms
*.host2.app[10].startTime = 2700us
*.host2.app[10].stopTime = 3500us
*.host2.app[10].display-name = "type2_3"
*.host2.app[10].destPort = 1000
*.host2.app[11].typename = "UdpBasicApp"
*.host2.app[11].destAddresses = "host3"
*.host2.app[11].source.packetNameFormat = "%M-%m-%c"
*.host2.app[11].source.displayStringTextFormat = "sent %p pk (%l)"
*.host2.app[11].messageLength = 18B
*.host2.app[11].sendInterval = 1ms
*.host2.app[11].startTime = 6400us
*.host2.app[11].stopTime = 7900us
*.host2.app[11].display-name = "type2_3"
*.host2.app[11].destPort = 1000
*.host2.app[12].typename = "UdpBasicApp"
*.host2.app[12].destAddresses = "host3"
*.host2.app[12].source.packetNameFormat = "%M-%m-%c"
*.host2.app[12].source.displayStringTextFormat = "sent %p pk (%l)"
*.host2.app[12].messageLength = 18B
*.host2.app[12].sendInterval = 1ms
*.host2.app[12].startTime = 8100us
*.host2.app[12].stopTime = 9100us
*.host2.app[12].display-name = "type2_3"
*.host2.app[12].destPort = 1000
*.host2.app[13].typename = "UdpBasicApp"
*.host2.app[13].destAddresses = "host3"
*.host2.app[13].source.packetNameFormat = "%M-%m-%c"
*.host2.app[13].source.displayStringTextFormat = "sent %p pk (%l)"
*.host2.app[13].messageLength = 18B
*.host2.app[13].sendInterval = 1ms
*.host2.app[13].startTime = 9200us
*.host2.app[13].stopTime = 9600us
*.host2.app[13].display-name = "type2_3"
*.host2.app[13].destPort = 1000
*.host3.numApps = 1
*.host3.app[0].typename = "UdpSinkApp"
*.host3.app[0].io.localPort = 1000
*.host4.numApps = 6
*.host4.app[0].typename = "UdpBasicApp"
*.host4.app[0].destAddresses = "host0"
*.host4.app[0].source.packetNameFormat = "%M-%m-%c"
*.host4.app[0].source.displayStringTextFormat = "sent %p pk (%l)"
*.host4.app[0].messageLength = 17B
*.host4.app[0].sendInterval = 1ms
*.host4.app[0].startTime = 200us
*.host4.app[0].stopTime = 700us
*.host4.app[0].display-name = "type2_0"
*.host4.app[0].destPort = 1001
*.host4.app[1].typename = "UdpBasicApp"
*.host4.app[1].destAddresses = "host0"
*.host4.app[1].source.packetNameFormat = "%M-%m-%c"
*.host4.app[1].source.displayStringTextFormat = "sent %p pk (%l)"
*.host4.app[1].messageLength = 17B
*.host4.app[1].sendInterval = 1ms
*.host4.app[1].startTime = 1100us
*.host4.app[1].stopTime = 3700us
*.host4.app[1].display-name = "type2_0"
*.host4.app[1].destPort = 1001
*.host4.app[2].typename = "UdpBasicApp"
*.host4.app[2].destAddresses = "host0"
*.host4.app[2].source.packetNameFormat = "%M-%m-%c"
*.host4.app[2].source.displayStringTextFormat = "sent %p pk (%l)"
*.host4.app[2].messageLength = 17B
*.host4.app[2].sendInterval = 1ms
*.host4.app[2].startTime = 5000us
*.host4.app[2].stopTime = 5800us
*.host4.app[2].display-name = "type2_0"
*.host4.app[2].destPort = 1001
*.host4.app[3].typename = "UdpBasicApp"
*.host4.app[3].destAddresses = "host0"
*.host4.app[3].source.packetNameFormat = "%M-%m-%c"
*.host4.app[3].source.displayStringTextFormat = "sent %p pk (%l)"
*.host4.app[3].messageLength = 17B
*.host4.app[3].sendInterval = 1ms
*.host4.app[3].startTime = 6900us
*.host4.app[3].stopTime = 7500us
*.host4.app[3].display-name = "type2_0"
*.host4.app[3].destPort = 1001
*.host4.app[4].typename = "UdpBasicApp"
*.host4.app[4].destAddresses = "host0"
*.host4.app[4].source.packetNameFormat = "%M-%m-%c"
*.host4.app[4].source.displayStringTextFormat = "sent %p pk (%l)"
*.host4.app[4].messageLength = 17B
*.host4.app[4].sendInterval = 1ms
*.host4.app[4].startTime = 9000us
*.host4.app[4].stopTime = 10000us
*.host4.app[4].display-name = "type2_0"
*.host4.app[4].destPort = 1001
*.host4.app[5].typename = "UdpSinkApp"
*.host4.app[5].io.localPort = 1000
*.host5.numApps = 5
*.host5.app[0].typename = "UdpSourceApp"
*.host5.app[0].io.destAddress = "host2"
*.host5.app[0].source.packetNameFormat = "%M-%m-%c"
*.host5.app[0].source.displayStringTextFormat = "sent %p pk (%l)"
*.host5.app[0].source.packetLength = 12B
*.host5.app[0].source.productionInterval = 1ms
*.host5.app[0].display-name = "type1_0"
*.host5.app[0].io.destPort = 1000
*.host5.app[1].typename = "UdpSinkApp"
*.host5.app[1].io.localPort = 1000
*.host5.app[2].typename = "UdpBasicApp"
*.host5.app[2].destAddresses = "host8"
*.host5.app[2].source.packetNameFormat = "%M-%m-%c"
*.host5.app[2].source.displayStringTextFormat = "sent %p pk (%l)"
*.host5.app[2].messageLength = 24B
*.host5.app[2].sendInterval = 1ms
*.host5.app[2].startTime = 2400us
*.host5.app[2].stopTime = 5100us
*.host5.app[2].display-name = "type2_5"
*.host5.app[2].destPort = 1000
*.host5.app[3].typename = "UdpBasicApp"
*.host5.app[3].destAddresses = "host8"
*.host5.app[3].source.packetNameFormat = "%M-%m-%c"
*.host5.app[3].source.displayStringTextFormat = "sent %p pk (%l)"
*.host5.app[3].messageLength = 24B
*.host5.app[3].sendInterval = 1ms
*.host5.app[3].startTime = 6000us
*.host5.app[3].stopTime = 7900us
*.host5.app[3].display-name = "type2_5"
*.host5.app[3].destPort = 1000
*.host5.app[4].typename = "UdpBasicApp"
*.host5.app[4].destAddresses = "host8"
*.host5.app[4].source.packetNameFormat = "%M-%m-%c"
*.host5.app[4].source.displayStringTextFormat = "sent %p pk (%l)"
*.host5.app[4].messageLength = 24B
*.host5.app[4].sendInterval = 1ms
*.host5.app[4].startTime = 8800us
*.host5.app[4].stopTime = 9800us
*.host5.app[4].display-name = "type2_5"
*.host5.app[4].destPort = 1000
*.host6.numApps = 0
*.host7.numApps = 6
*.host7.app[0].typename = "UdpBasicApp"
*.host7.app[0].destAddresses = "host5"
*.host7.app[0].source.packetNameFormat = "%M-%m-%c"
*.host7.app[0].source.displayStringTextFormat = "sent %p pk (%l)"
*.host7.app[0].messageLength = 18B
*.host7.app[0].sendInterval = 1ms
*.host7.app[0].startTime = 1500us
*.host7.app[0].stopTime = 1600us
*.host7.app[0].display-name = "type2_4"
*.host7.app[0].destPort = 1000
*.host7.app[1].typename = "UdpBasicApp"
*.host7.app[1].destAddresses = "host5"
*.host7.app[1].source.packetNameFormat = "%M-%m-%c"
*.host7.app[1].source.displayStringTextFormat = "sent %p pk (%l)"
*.host7.app[1].messageLength = 18B
*.host7.app[1].sendInterval = 1ms
*.host7.app[1].startTime = 2200us
*.host7.app[1].stopTime = 3200us
*.host7.app[1].display-name = "type2_4"
*.host7.app[1].destPort = 1000
*.host7.app[2].typename = "UdpBasicApp"
*.host7.app[2].destAddresses = "host5"
*.host7.app[2].source.packetNameFormat = "%M-%m-%c"
*.host7.app[2].source.displayStringTextFormat = "sent %p pk (%l)"
*.host7.app[2].messageLength = 18B
*.host7.app[2].sendInterval = 1ms
*.host7.app[2].startTime = 3600us
*.host7.app[2].stopTime = 6100us
*.host7.app[2].display-name = "type2_4"
*.host7.app[2].destPort = 1000
*.host7.app[3].typename = "UdpBasicApp"
*.host7.app[3].destAddresses = "host5"
*.host7.app[3].source.packetNameFormat = "%M-%m-%c"
*.host7.app[3].source.displayStringTextFormat = "sent %p pk (%l)"
*.host7.app[3].messageLength = 18B
*.host7.app[3].sendInterval = 1ms
*.host7.app[3].startTime = 6800us
*.host7.app[3].stopTime = 7000us
*.host7.app[3].display-name = "type2_4"
*.host7.app[3].destPort = 1000
*.host7.app[4].typename = "UdpBasicApp"
*.host7.app[4].destAddresses = "host5"
*.host7.app[4].source.packetNameFormat = "%M-%m-%c"
*.host7.app[4].source.displayStringTextFormat = "sent %p pk (%l)"
*.host7.app[4].messageLength = 18B
*.host7.app[4].sendInterval = 1ms
*.host7.app[4].startTime = 7100us
*.host7.app[4].stopTime = 8600us
*.host7.app[4].display-name = "type2_4"
*.host7.app[4].destPort = 1000
*.host7.app[5].typename = "UdpBasicApp"
*.host7.app[5].destAddresses = "host5"
*.host7.app[5].source.packetNameFormat = "%M-%m-%c"
*.host7.app[5].source.displayStringTextFormat = "sent %p pk (%l)"
*.host7.app[5].messageLength = 18B
*.host7.app[5].sendInterval = 1ms
*.host7.app[5].startTime = 9400us
*.host7.app[5].stopTime = 10000us
*.host7.app[5].display-name = "type2_4"
*.host7.app[5].destPort = 1000
*.host8.numApps = 7
*.host8.app[0].typename = "UdpBasicApp"
*.host8.app[0].destAddresses = "host9"
*.host8.app[0].source.packetNameFormat = "%M-%m-%c"
*.host8.app[0].source.displayStringTextFormat = "sent %p pk (%l)"
*.host8.app[0].messageLength = 17B
*.host8.app[0].sendInterval = 1ms
*.host8.app[0].startTime = 400us
*.host8.app[0].stopTime = 1400us
*.host8.app[0].display-name = "type2_1"
*.host8.app[0].destPort = 1000
*.host8.app[1].typename = "UdpBasicApp"
*.host8.app[1].destAddresses = "host9"
*.host8.app[1].source.packetNameFormat = "%M-%m-%c"
*.host8.app[1].source.displayStringTextFormat = "sent %p pk (%l)"
*.host8.app[1].messageLength = 17B
*.host8.app[1].sendInterval = 1ms
*.host8.app[1].startTime = 2300us
*.host8.app[1].stopTime = 3900us
*.host8.app[1].display-name = "type2_1"
*.host8.app[1].destPort = 1000
*.host8.app[2].typename = "UdpBasicApp"
*.host8.app[2].destAddresses = "host9"
*.host8.app[2].source.packetNameFormat = "%M-%m-%c"
*.host8.app[2].source.displayStringTextFormat = "sent %p pk (%l)"
*.host8.app[2].messageLength = 17B
*.host8.app[2].sendInterval = 1ms
*.host8.app[2].startTime = 4000us
*.host8.app[2].stopTime = 4400us
*.host8.app[2].display-name = "type2_1"
*.host8.app[2].destPort = 1000
*.host8.app[3].typename = "UdpBasicApp"
*.host8.app[3].destAddresses = "host9"
*.host8.app[3].source.packetNameFormat = "%M-%m-%c"
*.host8.app[3].source.displayStringTextFormat = "sent %p pk (%l)"
*.host8.app[3].messageLength = 17B
*.host8.app[3].sendInterval = 1ms
*.host8.app[3].startTime = 6100us
*.host8.app[3].stopTime = 6900us
*.host8.app[3].display-name = "type2_1"
*.host8.app[3].destPort = 1000
*.host8.app[4].typename = "UdpBasicApp"
*.host8.app[4].destAddresses = "host9"
*.host8.app[4].source.packetNameFormat = "%M-%m-%c"
*.host8.app[4].source.displayStringTextFormat = "sent %p pk (%l)"
*.host8.app[4].messageLength = 17B
*.host8.app[4].sendInterval = 1ms
*.host8.app[4].startTime = 7300us
*.host8.app[4].stopTime = 7500us
*.host8.app[4].display-name = "type2_1"
*.host8.app[4].destPort = 1000
*.host8.app[5].typename = "UdpBasicApp"
*.host8.app[5].destAddresses = "host9"
*.host8.app[5].source.packetNameFormat = "%M-%m-%c"
*.host8.app[5].source.displayStringTextFormat = "sent %p pk (%l)"
*.host8.app[5].messageLength = 17B
*.host8.app[5].sendInterval = 1ms
*.host8.app[5].startTime = 7600us
*.host8.app[5].stopTime = 9700us
*.host8.app[5].display-name = "type2_1"
*.host8.app[5].destPort = 1000
*.host8.app[6].typename = "UdpSinkApp"
*.host8.app[6].io.localPort = 1000
*.host9.numApps = 1
*.host9.app[0].typename = "UdpSinkApp"
*.host9.app[0].io.localPort = 1000
*.streamRedundancyConfigurator.configuration = [
	{
		name: "S1-0",
		packetFilter: "*-type1_0-*",
		source: "host5",
		destination: "host2",
		trees: [[["host5",
	 "switch5",
	 "switch0",
	 "switch7",
	 "switch3",
	 "switch9",
	 "switch1",
	 "switch2",
	 "host2"]]]
	},
	{
		name: "S1-1",
		packetFilter: "*-type1_1-*",
		source: "host2",
		destination: "host0",
		trees: [[["host2", "switch2", "switch7", "switch3", "switch0", "host0"]]]
	},
	{
		name: "S2-0",
		packetFilter: "*-type2_0-*",
		source: "host4",
		destination: "host0",
		trees: [[["host4", "switch4", "switch0", "host0"]]]
	},
	{
		name: "S2-1",
		packetFilter: "*-type2_1-*",
		source: "host8",
		destination: "host9",
		trees: [[["host8",
	 "switch8",
	 "switch5",
	 "switch0",
	 "switch6",
	 "switch1",
	 "switch2",
	 "switch7",
	 "switch3",
	 "switch9",
	 "host9"]]]
	},
	{
		name: "S2-2",
		packetFilter: "*-type2_2-*",
		source: "host2",
		destination: "host4",
		trees: [[["host2", "switch2", "switch7", "switch3", "switch4", "host4"]]]
	},
	{
		name: "S2-3",
		packetFilter: "*-type2_3-*",
		source: "host2",
		destination: "host3",
		trees: [[["host2", "switch2", "switch7", "switch3", "host3"]]]
	},
	{
		name: "S2-4",
		packetFilter: "*-type2_4-*",
		source: "host7",
		destination: "host5",
		trees: [[["host7", "switch7", "switch3", "switch9", "switch8", "switch5", "host5"]]]
	},
	{
		name: "S2-5",
		packetFilter: "*-type2_5-*",
		source: "host5",
		destination: "host8",
		trees: [[["host5",
	 "switch5",
	 "switch0",
	 "switch6",
	 "switch1",
	 "switch2",
	 "switch7",
	 "switch3",
	 "switch9",
	 "switch8",
	 "host8"]]]
	}]
	

