[General]
network = TSN_multipath
sim-time-limit = 100ms
*.macForwardingTableConfigurator.typename = ""
*.*.hasStreamRedundancy = true
*.*.bridging.streamRelay.typename = "StreamRelayLayer"
*.*.bridging.streamCoder.typename = "StreamCoderLayer"
*.streamRedundancyConfigurator.typename = "StreamRedundancyConfigurator"
*.host0.eth[0].bitrate = 1000Mbps
*.switch0.eth[0].bitrate = 1000Mbps
*.switch0.eth[1].bitrate = 1700Mbps
*.switch0.eth[2].bitrate = 1700Mbps
*.switch0.eth[3].bitrate = 2100Mbps
*.switch0.eth[4].bitrate = 1700Mbps
*.switch0.eth[5].bitrate = 1400Mbps
*.switch0.eth[6].bitrate = 2200Mbps
*.switch0.eth[7].bitrate = 2200Mbps
*.switch0.eth[8].bitrate = 2400Mbps
*.switch0.eth[9].bitrate = 1800Mbps
*.switch0.eth[10].bitrate = 1900Mbps
*.host1.eth[0].bitrate = 1000Mbps
*.switch1.eth[0].bitrate = 1000Mbps
*.switch1.eth[1].bitrate = 2000Mbps
*.switch1.eth[2].bitrate = 1900Mbps
*.switch1.eth[3].bitrate = 2200Mbps
*.switch1.eth[4].bitrate = 1300Mbps
*.switch1.eth[5].bitrate = 1500Mbps
*.switch1.eth[6].bitrate = 1700Mbps
*.switch1.eth[7].bitrate = 1900Mbps
*.switch1.eth[8].bitrate = 2000Mbps
*.switch1.eth[9].bitrate = 2200Mbps
*.host2.eth[0].bitrate = 1000Mbps
*.switch2.eth[0].bitrate = 1000Mbps
*.switch2.eth[1].bitrate = 1700Mbps
*.switch2.eth[2].bitrate = 1300Mbps
*.switch2.eth[3].bitrate = 2300Mbps
*.switch2.eth[4].bitrate = 2400Mbps
*.switch2.eth[5].bitrate = 2200Mbps
*.switch2.eth[6].bitrate = 1700Mbps
*.switch2.eth[7].bitrate = 2100Mbps
*.switch2.eth[8].bitrate = 1700Mbps
*.switch2.eth[9].bitrate = 2300Mbps
*.switch2.eth[10].bitrate = 1700Mbps
*.switch2.eth[11].bitrate = 2200Mbps
*.switch2.eth[12].bitrate = 2300Mbps
*.switch2.eth[13].bitrate = 2200Mbps
*.switch2.eth[14].bitrate = 2400Mbps
*.host3.eth[0].bitrate = 1000Mbps
*.switch3.eth[0].bitrate = 1000Mbps
*.switch3.eth[1].bitrate = 2100Mbps
*.switch3.eth[2].bitrate = 1900Mbps
*.switch3.eth[3].bitrate = 1600Mbps
*.switch3.eth[4].bitrate = 2400Mbps
*.switch3.eth[5].bitrate = 2300Mbps
*.switch3.eth[6].bitrate = 1800Mbps
*.switch3.eth[7].bitrate = 1400Mbps
*.switch3.eth[8].bitrate = 1200Mbps
*.host4.eth[0].bitrate = 1000Mbps
*.switch4.eth[0].bitrate = 1000Mbps
*.switch4.eth[1].bitrate = 1700Mbps
*.switch4.eth[2].bitrate = 1500Mbps
*.switch4.eth[3].bitrate = 2100Mbps
*.switch4.eth[4].bitrate = 1600Mbps
*.switch4.eth[5].bitrate = 2400Mbps
*.switch4.eth[6].bitrate = 2100Mbps
*.switch4.eth[7].bitrate = 1900Mbps
*.switch4.eth[8].bitrate = 1500Mbps
*.switch4.eth[9].bitrate = 1300Mbps
*.switch4.eth[10].bitrate = 2100Mbps
*.switch4.eth[11].bitrate = 1600Mbps
*.switch4.eth[12].bitrate = 1700Mbps
*.switch4.eth[13].bitrate = 2200Mbps
*.switch4.eth[14].bitrate = 1200Mbps
*.switch4.eth[15].bitrate = 1900Mbps
*.host5.eth[0].bitrate = 1000Mbps
*.switch5.eth[0].bitrate = 1000Mbps
*.switch5.eth[1].bitrate = 2000Mbps
*.switch5.eth[2].bitrate = 2400Mbps
*.switch5.eth[3].bitrate = 1400Mbps
*.switch5.eth[4].bitrate = 1700Mbps
*.switch5.eth[5].bitrate = 1700Mbps
*.switch5.eth[6].bitrate = 2100Mbps
*.switch5.eth[7].bitrate = 2100Mbps
*.switch5.eth[8].bitrate = 2200Mbps
*.switch5.eth[9].bitrate = 1400Mbps
*.switch5.eth[10].bitrate = 1400Mbps
*.switch5.eth[11].bitrate = 1300Mbps
*.switch5.eth[12].bitrate = 2300Mbps
*.switch5.eth[13].bitrate = 2100Mbps
*.switch5.eth[14].bitrate = 1800Mbps
*.switch5.eth[15].bitrate = 1200Mbps
*.switch5.eth[16].bitrate = 2300Mbps
*.switch5.eth[17].bitrate = 1200Mbps
*.switch5.eth[18].bitrate = 1600Mbps
*.switch5.eth[19].bitrate = 1400Mbps
*.switch5.eth[20].bitrate = 1700Mbps
*.host6.eth[0].bitrate = 1000Mbps
*.switch6.eth[0].bitrate = 1000Mbps
*.switch6.eth[1].bitrate = 1900Mbps
*.switch6.eth[2].bitrate = 1900Mbps
*.switch6.eth[3].bitrate = 2100Mbps
*.switch6.eth[4].bitrate = 2100Mbps
*.switch6.eth[5].bitrate = 2200Mbps
*.switch6.eth[6].bitrate = 1900Mbps
*.switch6.eth[7].bitrate = 2300Mbps
*.switch6.eth[8].bitrate = 2400Mbps
*.switch6.eth[9].bitrate = 1700Mbps
*.switch6.eth[10].bitrate = 1200Mbps
*.switch6.eth[11].bitrate = 2100Mbps
*.switch6.eth[12].bitrate = 2000Mbps
*.switch6.eth[13].bitrate = 2100Mbps
*.switch6.eth[14].bitrate = 1200Mbps
*.switch6.eth[15].bitrate = 2300Mbps
*.switch6.eth[16].bitrate = 1400Mbps
*.switch6.eth[17].bitrate = 1700Mbps
*.switch6.eth[18].bitrate = 1600Mbps
*.switch6.eth[19].bitrate = 1600Mbps
*.switch6.eth[20].bitrate = 1200Mbps
*.host7.eth[0].bitrate = 1000Mbps
*.switch7.eth[0].bitrate = 1000Mbps
*.switch7.eth[1].bitrate = 2300Mbps
*.switch7.eth[2].bitrate = 1900Mbps
*.switch7.eth[3].bitrate = 2100Mbps
*.switch7.eth[4].bitrate = 2100Mbps
*.switch7.eth[5].bitrate = 2300Mbps
*.switch7.eth[6].bitrate = 1200Mbps
*.switch7.eth[7].bitrate = 1800Mbps
*.switch7.eth[8].bitrate = 1200Mbps
*.switch7.eth[9].bitrate = 2000Mbps
*.switch7.eth[10].bitrate = 1600Mbps
*.switch7.eth[11].bitrate = 1400Mbps
*.host8.eth[0].bitrate = 1000Mbps
*.switch8.eth[0].bitrate = 1000Mbps
*.switch8.eth[1].bitrate = 2400Mbps
*.switch8.eth[2].bitrate = 1500Mbps
*.switch8.eth[3].bitrate = 2200Mbps
*.switch8.eth[4].bitrate = 2000Mbps
*.switch8.eth[5].bitrate = 2000Mbps
*.switch8.eth[6].bitrate = 1700Mbps
*.switch8.eth[7].bitrate = 2300Mbps
*.switch8.eth[8].bitrate = 1200Mbps
*.switch8.eth[9].bitrate = 1900Mbps
*.switch8.eth[10].bitrate = 1200Mbps
*.switch8.eth[11].bitrate = 1300Mbps
*.switch8.eth[12].bitrate = 1200Mbps
*.switch8.eth[13].bitrate = 1900Mbps
*.switch8.eth[14].bitrate = 2100Mbps
*.switch8.eth[15].bitrate = 1900Mbps
*.switch8.eth[16].bitrate = 2300Mbps
*.host9.eth[0].bitrate = 1000Mbps
*.switch9.eth[0].bitrate = 1000Mbps
*.switch9.eth[1].bitrate = 1400Mbps
*.switch9.eth[2].bitrate = 2100Mbps
*.switch9.eth[3].bitrate = 1900Mbps
*.switch9.eth[4].bitrate = 2200Mbps
*.switch9.eth[5].bitrate = 2200Mbps
*.switch9.eth[6].bitrate = 1400Mbps
*.switch9.eth[7].bitrate = 1300Mbps
*.switch9.eth[8].bitrate = 1500Mbps
*.host10.eth[0].bitrate = 1000Mbps
*.switch10.eth[0].bitrate = 1000Mbps
*.switch10.eth[1].bitrate = 1400Mbps
*.switch10.eth[2].bitrate = 1200Mbps
*.switch10.eth[3].bitrate = 2200Mbps
*.switch10.eth[4].bitrate = 2200Mbps
*.switch10.eth[5].bitrate = 1800Mbps
*.switch10.eth[6].bitrate = 1200Mbps
*.switch10.eth[7].bitrate = 1600Mbps
*.switch10.eth[8].bitrate = 1200Mbps
*.switch10.eth[9].bitrate = 2200Mbps
*.switch10.eth[10].bitrate = 1600Mbps
*.switch10.eth[11].bitrate = 2100Mbps
*.switch10.eth[12].bitrate = 2300Mbps
*.switch10.eth[13].bitrate = 1900Mbps
*.host11.eth[0].bitrate = 1000Mbps
*.switch11.eth[0].bitrate = 1000Mbps
*.switch11.eth[1].bitrate = 1300Mbps
*.switch11.eth[2].bitrate = 1300Mbps
*.switch11.eth[3].bitrate = 1200Mbps
*.switch11.eth[4].bitrate = 2400Mbps
*.switch11.eth[5].bitrate = 2300Mbps
*.switch11.eth[6].bitrate = 1400Mbps
*.switch11.eth[7].bitrate = 1200Mbps
*.switch11.eth[8].bitrate = 1600Mbps
*.switch11.eth[9].bitrate = 2000Mbps
*.switch11.eth[10].bitrate = 1900Mbps
*.switch11.eth[11].bitrate = 1400Mbps
*.switch11.eth[12].bitrate = 2100Mbps
*.switch11.eth[13].bitrate = 1700Mbps
*.switch11.eth[14].bitrate = 2200Mbps
*.switch11.eth[15].bitrate = 1600Mbps
*.switch11.eth[16].bitrate = 2100Mbps
*.switch11.eth[17].bitrate = 2100Mbps
*.host12.eth[0].bitrate = 1000Mbps
*.switch12.eth[0].bitrate = 1000Mbps
*.switch12.eth[1].bitrate = 2100Mbps
*.switch12.eth[2].bitrate = 2300Mbps
*.switch12.eth[3].bitrate = 2300Mbps
*.switch12.eth[4].bitrate = 1200Mbps
*.switch12.eth[5].bitrate = 1600Mbps
*.switch12.eth[6].bitrate = 1700Mbps
*.switch12.eth[7].bitrate = 1800Mbps
*.switch12.eth[8].bitrate = 2200Mbps
*.switch12.eth[9].bitrate = 1400Mbps
*.switch12.eth[10].bitrate = 1600Mbps
*.switch12.eth[11].bitrate = 2100Mbps
*.switch12.eth[12].bitrate = 1300Mbps
*.switch12.eth[13].bitrate = 2300Mbps
*.switch12.eth[14].bitrate = 2100Mbps
*.switch12.eth[15].bitrate = 1600Mbps
*.switch12.eth[16].bitrate = 2100Mbps
*.host13.eth[0].bitrate = 1000Mbps
*.switch13.eth[0].bitrate = 1000Mbps
*.switch13.eth[1].bitrate = 1700Mbps
*.switch13.eth[2].bitrate = 2200Mbps
*.switch13.eth[3].bitrate = 2200Mbps
*.switch13.eth[4].bitrate = 1600Mbps
*.switch13.eth[5].bitrate = 2100Mbps
*.switch13.eth[6].bitrate = 1400Mbps
*.switch13.eth[7].bitrate = 1800Mbps
*.switch13.eth[8].bitrate = 1300Mbps
*.switch13.eth[9].bitrate = 2200Mbps
*.switch13.eth[10].bitrate = 1600Mbps
*.switch13.eth[11].bitrate = 1900Mbps
*.switch13.eth[12].bitrate = 2200Mbps
*.switch13.eth[13].bitrate = 2400Mbps
*.switch13.eth[14].bitrate = 1200Mbps
*.switch13.eth[15].bitrate = 1900Mbps
*.switch13.eth[16].bitrate = 1700Mbps
*.switch13.eth[17].bitrate = 1600Mbps
*.switch13.eth[18].bitrate = 1900Mbps
*.switch13.eth[19].bitrate = 1500Mbps
*.switch13.eth[20].bitrate = 1900Mbps
*.switch13.eth[21].bitrate = 2100Mbps
*.switch13.eth[22].bitrate = 2100Mbps
*.switch13.eth[23].bitrate = 1400Mbps
*.host14.eth[0].bitrate = 1000Mbps
*.switch14.eth[0].bitrate = 1000Mbps
*.switch14.eth[1].bitrate = 1700Mbps
*.switch14.eth[2].bitrate = 1800Mbps
*.switch14.eth[3].bitrate = 1700Mbps
*.switch14.eth[4].bitrate = 1600Mbps
*.switch14.eth[5].bitrate = 1200Mbps
*.switch14.eth[6].bitrate = 1400Mbps
*.switch14.eth[7].bitrate = 2300Mbps
*.switch14.eth[8].bitrate = 1400Mbps
*.host0.numApps = 14
*.host0.app[0].typename = "UdpBasicApp"
*.host0.app[0].destAddresses = "host6"
*.host0.app[0].source.packetNameFormat = "%M-%m-%c"
*.host0.app[0].source.displayStringTextFormat = "sent %p pk (%l)"
*.host0.app[0].messageLength = 20B
*.host0.app[0].sendInterval = 1ms
*.host0.app[0].startTime = 10ms
*.host0.app[0].stopTime = 26ms
*.host0.app[0].display-name = "type2_1"
*.host0.app[0].destPort = 1001
*.host0.app[1].typename = "UdpBasicApp"
*.host0.app[1].destAddresses = "host6"
*.host0.app[1].source.packetNameFormat = "%M-%m-%c"
*.host0.app[1].source.displayStringTextFormat = "sent %p pk (%l)"
*.host0.app[1].messageLength = 20B
*.host0.app[1].sendInterval = 1ms
*.host0.app[1].startTime = 34ms
*.host0.app[1].stopTime = 48ms
*.host0.app[1].display-name = "type2_1"
*.host0.app[1].destPort = 1001
*.host0.app[2].typename = "UdpBasicApp"
*.host0.app[2].destAddresses = "host6"
*.host0.app[2].source.packetNameFormat = "%M-%m-%c"
*.host0.app[2].source.displayStringTextFormat = "sent %p pk (%l)"
*.host0.app[2].messageLength = 20B
*.host0.app[2].sendInterval = 1ms
*.host0.app[2].startTime = 54ms
*.host0.app[2].stopTime = 57ms
*.host0.app[2].display-name = "type2_1"
*.host0.app[2].destPort = 1001
*.host0.app[3].typename = "UdpBasicApp"
*.host0.app[3].destAddresses = "host6"
*.host0.app[3].source.packetNameFormat = "%M-%m-%c"
*.host0.app[3].source.displayStringTextFormat = "sent %p pk (%l)"
*.host0.app[3].messageLength = 20B
*.host0.app[3].sendInterval = 1ms
*.host0.app[3].startTime = 61ms
*.host0.app[3].stopTime = 81ms
*.host0.app[3].display-name = "type2_1"
*.host0.app[3].destPort = 1001
*.host0.app[4].typename = "UdpBasicApp"
*.host0.app[4].destAddresses = "host6"
*.host0.app[4].source.packetNameFormat = "%M-%m-%c"
*.host0.app[4].source.displayStringTextFormat = "sent %p pk (%l)"
*.host0.app[4].messageLength = 20B
*.host0.app[4].sendInterval = 1ms
*.host0.app[4].startTime = 84ms
*.host0.app[4].stopTime = 85ms
*.host0.app[4].display-name = "type2_1"
*.host0.app[4].destPort = 1001
*.host0.app[5].typename = "UdpBasicApp"
*.host0.app[5].destAddresses = "host6"
*.host0.app[5].source.packetNameFormat = "%M-%m-%c"
*.host0.app[5].source.displayStringTextFormat = "sent %p pk (%l)"
*.host0.app[5].messageLength = 20B
*.host0.app[5].sendInterval = 1ms
*.host0.app[5].startTime = 92ms
*.host0.app[5].stopTime = 96ms
*.host0.app[5].display-name = "type2_1"
*.host0.app[5].destPort = 1001
*.host0.app[6].typename = "UdpBasicApp"
*.host0.app[6].destAddresses = "host6"
*.host0.app[6].source.packetNameFormat = "%M-%m-%c"
*.host0.app[6].source.displayStringTextFormat = "sent %p pk (%l)"
*.host0.app[6].messageLength = 22B
*.host0.app[6].sendInterval = 1ms
*.host0.app[6].startTime = 6ms
*.host0.app[6].stopTime = 7ms
*.host0.app[6].display-name = "type2_7"
*.host0.app[6].destPort = 1004
*.host0.app[7].typename = "UdpBasicApp"
*.host0.app[7].destAddresses = "host6"
*.host0.app[7].source.packetNameFormat = "%M-%m-%c"
*.host0.app[7].source.displayStringTextFormat = "sent %p pk (%l)"
*.host0.app[7].messageLength = 22B
*.host0.app[7].sendInterval = 1ms
*.host0.app[7].startTime = 14ms
*.host0.app[7].stopTime = 15ms
*.host0.app[7].display-name = "type2_7"
*.host0.app[7].destPort = 1004
*.host0.app[8].typename = "UdpBasicApp"
*.host0.app[8].destAddresses = "host6"
*.host0.app[8].source.packetNameFormat = "%M-%m-%c"
*.host0.app[8].source.displayStringTextFormat = "sent %p pk (%l)"
*.host0.app[8].messageLength = 22B
*.host0.app[8].sendInterval = 1ms
*.host0.app[8].startTime = 16ms
*.host0.app[8].stopTime = 18ms
*.host0.app[8].display-name = "type2_7"
*.host0.app[8].destPort = 1004
*.host0.app[9].typename = "UdpBasicApp"
*.host0.app[9].destAddresses = "host6"
*.host0.app[9].source.packetNameFormat = "%M-%m-%c"
*.host0.app[9].source.displayStringTextFormat = "sent %p pk (%l)"
*.host0.app[9].messageLength = 22B
*.host0.app[9].sendInterval = 1ms
*.host0.app[9].startTime = 39ms
*.host0.app[9].stopTime = 42ms
*.host0.app[9].display-name = "type2_7"
*.host0.app[9].destPort = 1004
*.host0.app[10].typename = "UdpBasicApp"
*.host0.app[10].destAddresses = "host6"
*.host0.app[10].source.packetNameFormat = "%M-%m-%c"
*.host0.app[10].source.displayStringTextFormat = "sent %p pk (%l)"
*.host0.app[10].messageLength = 22B
*.host0.app[10].sendInterval = 1ms
*.host0.app[10].startTime = 44ms
*.host0.app[10].stopTime = 51ms
*.host0.app[10].display-name = "type2_7"
*.host0.app[10].destPort = 1004
*.host0.app[11].typename = "UdpBasicApp"
*.host0.app[11].destAddresses = "host6"
*.host0.app[11].source.packetNameFormat = "%M-%m-%c"
*.host0.app[11].source.displayStringTextFormat = "sent %p pk (%l)"
*.host0.app[11].messageLength = 22B
*.host0.app[11].sendInterval = 1ms
*.host0.app[11].startTime = 74ms
*.host0.app[11].stopTime = 80ms
*.host0.app[11].display-name = "type2_7"
*.host0.app[11].destPort = 1004
*.host0.app[12].typename = "UdpBasicApp"
*.host0.app[12].destAddresses = "host6"
*.host0.app[12].source.packetNameFormat = "%M-%m-%c"
*.host0.app[12].source.displayStringTextFormat = "sent %p pk (%l)"
*.host0.app[12].messageLength = 22B
*.host0.app[12].sendInterval = 1ms
*.host0.app[12].startTime = 95ms
*.host0.app[12].stopTime = 100ms
*.host0.app[12].display-name = "type2_7"
*.host0.app[12].destPort = 1004
*.host0.app[13].typename = "UdpSinkApp"
*.host0.app[13].io.localPort = 1000
*.host1.numApps = 1
*.host1.app[0].typename = "UdpSinkApp"
*.host1.app[0].io.localPort = 1000
*.host2.numApps = 1
*.host2.app[0].typename = "UdpSinkApp"
*.host2.app[0].io.localPort = 1000
*.host3.numApps = 5
*.host3.app[0].typename = "UdpSinkApp"
*.host3.app[0].io.localPort = 1000
*.host3.app[1].typename = "UdpBasicApp"
*.host3.app[1].destAddresses = "host1"
*.host3.app[1].source.packetNameFormat = "%M-%m-%c"
*.host3.app[1].source.displayStringTextFormat = "sent %p pk (%l)"
*.host3.app[1].messageLength = 22B
*.host3.app[1].sendInterval = 1ms
*.host3.app[1].startTime = 2ms
*.host3.app[1].stopTime = 12ms
*.host3.app[1].display-name = "type2_2"
*.host3.app[1].destPort = 1000
*.host3.app[2].typename = "UdpBasicApp"
*.host3.app[2].destAddresses = "host1"
*.host3.app[2].source.packetNameFormat = "%M-%m-%c"
*.host3.app[2].source.displayStringTextFormat = "sent %p pk (%l)"
*.host3.app[2].messageLength = 22B
*.host3.app[2].sendInterval = 1ms
*.host3.app[2].startTime = 27ms
*.host3.app[2].stopTime = 69ms
*.host3.app[2].display-name = "type2_2"
*.host3.app[2].destPort = 1000
*.host3.app[3].typename = "UdpBasicApp"
*.host3.app[3].destAddresses = "host1"
*.host3.app[3].source.packetNameFormat = "%M-%m-%c"
*.host3.app[3].source.displayStringTextFormat = "sent %p pk (%l)"
*.host3.app[3].messageLength = 22B
*.host3.app[3].sendInterval = 1ms
*.host3.app[3].startTime = 77ms
*.host3.app[3].stopTime = 86ms
*.host3.app[3].display-name = "type2_2"
*.host3.app[3].destPort = 1000
*.host3.app[4].typename = "UdpBasicApp"
*.host3.app[4].destAddresses = "host1"
*.host3.app[4].source.packetNameFormat = "%M-%m-%c"
*.host3.app[4].source.displayStringTextFormat = "sent %p pk (%l)"
*.host3.app[4].messageLength = 22B
*.host3.app[4].sendInterval = 1ms
*.host3.app[4].startTime = 88ms
*.host3.app[4].stopTime = 100ms
*.host3.app[4].display-name = "type2_2"
*.host3.app[4].destPort = 1000
*.host4.numApps = 13
*.host4.app[0].typename = "UdpSourceApp"
*.host4.app[0].io.destAddress = "host6"
*.host4.app[0].source.packetNameFormat = "%M-%m-%c"
*.host4.app[0].source.displayStringTextFormat = "sent %p pk (%l)"
*.host4.app[0].source.packetLength = 21B
*.host4.app[0].source.productionInterval = 1ms
*.host4.app[0].display-name = "type1_2"
*.host4.app[0].io.destPort = 1000
*.host4.app[1].typename = "UdpBasicApp"
*.host4.app[1].destAddresses = "host14"
*.host4.app[1].source.packetNameFormat = "%M-%m-%c"
*.host4.app[1].source.displayStringTextFormat = "sent %p pk (%l)"
*.host4.app[1].messageLength = 22B
*.host4.app[1].sendInterval = 1ms
*.host4.app[1].startTime = 7ms
*.host4.app[1].stopTime = 18ms
*.host4.app[1].display-name = "type2_0"
*.host4.app[1].destPort = 1000
*.host4.app[2].typename = "UdpBasicApp"
*.host4.app[2].destAddresses = "host14"
*.host4.app[2].source.packetNameFormat = "%M-%m-%c"
*.host4.app[2].source.displayStringTextFormat = "sent %p pk (%l)"
*.host4.app[2].messageLength = 22B
*.host4.app[2].sendInterval = 1ms
*.host4.app[2].startTime = 19ms
*.host4.app[2].stopTime = 25ms
*.host4.app[2].display-name = "type2_0"
*.host4.app[2].destPort = 1000
*.host4.app[3].typename = "UdpBasicApp"
*.host4.app[3].destAddresses = "host14"
*.host4.app[3].source.packetNameFormat = "%M-%m-%c"
*.host4.app[3].source.displayStringTextFormat = "sent %p pk (%l)"
*.host4.app[3].messageLength = 22B
*.host4.app[3].sendInterval = 1ms
*.host4.app[3].startTime = 27ms
*.host4.app[3].stopTime = 32ms
*.host4.app[3].display-name = "type2_0"
*.host4.app[3].destPort = 1000
*.host4.app[4].typename = "UdpBasicApp"
*.host4.app[4].destAddresses = "host14"
*.host4.app[4].source.packetNameFormat = "%M-%m-%c"
*.host4.app[4].source.displayStringTextFormat = "sent %p pk (%l)"
*.host4.app[4].messageLength = 22B
*.host4.app[4].sendInterval = 1ms
*.host4.app[4].startTime = 44ms
*.host4.app[4].stopTime = 50ms
*.host4.app[4].display-name = "type2_0"
*.host4.app[4].destPort = 1000
*.host4.app[5].typename = "UdpBasicApp"
*.host4.app[5].destAddresses = "host14"
*.host4.app[5].source.packetNameFormat = "%M-%m-%c"
*.host4.app[5].source.displayStringTextFormat = "sent %p pk (%l)"
*.host4.app[5].messageLength = 22B
*.host4.app[5].sendInterval = 1ms
*.host4.app[5].startTime = 83ms
*.host4.app[5].stopTime = 88ms
*.host4.app[5].display-name = "type2_0"
*.host4.app[5].destPort = 1000
*.host4.app[6].typename = "UdpBasicApp"
*.host4.app[6].destAddresses = "host14"
*.host4.app[6].source.packetNameFormat = "%M-%m-%c"
*.host4.app[6].source.displayStringTextFormat = "sent %p pk (%l)"
*.host4.app[6].messageLength = 22B
*.host4.app[6].sendInterval = 1ms
*.host4.app[6].startTime = 96ms
*.host4.app[6].stopTime = 100ms
*.host4.app[6].display-name = "type2_0"
*.host4.app[6].destPort = 1000
*.host4.app[7].typename = "UdpBasicApp"
*.host4.app[7].destAddresses = "host6"
*.host4.app[7].source.packetNameFormat = "%M-%m-%c"
*.host4.app[7].source.displayStringTextFormat = "sent %p pk (%l)"
*.host4.app[7].messageLength = 16B
*.host4.app[7].sendInterval = 1ms
*.host4.app[7].startTime = 14ms
*.host4.app[7].stopTime = 15ms
*.host4.app[7].display-name = "type2_5"
*.host4.app[7].destPort = 1003
*.host4.app[8].typename = "UdpBasicApp"
*.host4.app[8].destAddresses = "host6"
*.host4.app[8].source.packetNameFormat = "%M-%m-%c"
*.host4.app[8].source.displayStringTextFormat = "sent %p pk (%l)"
*.host4.app[8].messageLength = 16B
*.host4.app[8].sendInterval = 1ms
*.host4.app[8].startTime = 21ms
*.host4.app[8].stopTime = 32ms
*.host4.app[8].display-name = "type2_5"
*.host4.app[8].destPort = 1003
*.host4.app[9].typename = "UdpBasicApp"
*.host4.app[9].destAddresses = "host6"
*.host4.app[9].source.packetNameFormat = "%M-%m-%c"
*.host4.app[9].source.displayStringTextFormat = "sent %p pk (%l)"
*.host4.app[9].messageLength = 16B
*.host4.app[9].sendInterval = 1ms
*.host4.app[9].startTime = 33ms
*.host4.app[9].stopTime = 35ms
*.host4.app[9].display-name = "type2_5"
*.host4.app[9].destPort = 1003
*.host4.app[10].typename = "UdpBasicApp"
*.host4.app[10].destAddresses = "host6"
*.host4.app[10].source.packetNameFormat = "%M-%m-%c"
*.host4.app[10].source.displayStringTextFormat = "sent %p pk (%l)"
*.host4.app[10].messageLength = 16B
*.host4.app[10].sendInterval = 1ms
*.host4.app[10].startTime = 61ms
*.host4.app[10].stopTime = 63ms
*.host4.app[10].display-name = "type2_5"
*.host4.app[10].destPort = 1003
*.host4.app[11].typename = "UdpBasicApp"
*.host4.app[11].destAddresses = "host6"
*.host4.app[11].source.packetNameFormat = "%M-%m-%c"
*.host4.app[11].source.displayStringTextFormat = "sent %p pk (%l)"
*.host4.app[11].messageLength = 16B
*.host4.app[11].sendInterval = 1ms
*.host4.app[11].startTime = 66ms
*.host4.app[11].stopTime = 73ms
*.host4.app[11].display-name = "type2_5"
*.host4.app[11].destPort = 1003
*.host4.app[12].typename = "UdpBasicApp"
*.host4.app[12].destAddresses = "host6"
*.host4.app[12].source.packetNameFormat = "%M-%m-%c"
*.host4.app[12].source.displayStringTextFormat = "sent %p pk (%l)"
*.host4.app[12].messageLength = 16B
*.host4.app[12].sendInterval = 1ms
*.host4.app[12].startTime = 92ms
*.host4.app[12].stopTime = 93ms
*.host4.app[12].display-name = "type2_5"
*.host4.app[12].destPort = 1003
*.host5.numApps = 14
*.host5.app[0].typename = "UdpBasicApp"
*.host5.app[0].destAddresses = "host6"
*.host5.app[0].source.packetNameFormat = "%M-%m-%c"
*.host5.app[0].source.displayStringTextFormat = "sent %p pk (%l)"
*.host5.app[0].messageLength = 12B
*.host5.app[0].sendInterval = 1ms
*.host5.app[0].startTime = 0ms
*.host5.app[0].stopTime = 2ms
*.host5.app[0].display-name = "type2_9"
*.host5.app[0].destPort = 1005
*.host5.app[1].typename = "UdpBasicApp"
*.host5.app[1].destAddresses = "host6"
*.host5.app[1].source.packetNameFormat = "%M-%m-%c"
*.host5.app[1].source.displayStringTextFormat = "sent %p pk (%l)"
*.host5.app[1].messageLength = 12B
*.host5.app[1].sendInterval = 1ms
*.host5.app[1].startTime = 21ms
*.host5.app[1].stopTime = 26ms
*.host5.app[1].display-name = "type2_9"
*.host5.app[1].destPort = 1005
*.host5.app[2].typename = "UdpBasicApp"
*.host5.app[2].destAddresses = "host6"
*.host5.app[2].source.packetNameFormat = "%M-%m-%c"
*.host5.app[2].source.displayStringTextFormat = "sent %p pk (%l)"
*.host5.app[2].messageLength = 12B
*.host5.app[2].sendInterval = 1ms
*.host5.app[2].startTime = 28ms
*.host5.app[2].stopTime = 31ms
*.host5.app[2].display-name = "type2_9"
*.host5.app[2].destPort = 1005
*.host5.app[3].typename = "UdpBasicApp"
*.host5.app[3].destAddresses = "host6"
*.host5.app[3].source.packetNameFormat = "%M-%m-%c"
*.host5.app[3].source.displayStringTextFormat = "sent %p pk (%l)"
*.host5.app[3].messageLength = 12B
*.host5.app[3].sendInterval = 1ms
*.host5.app[3].startTime = 38ms
*.host5.app[3].stopTime = 42ms
*.host5.app[3].display-name = "type2_9"
*.host5.app[3].destPort = 1005
*.host5.app[4].typename = "UdpBasicApp"
*.host5.app[4].destAddresses = "host6"
*.host5.app[4].source.packetNameFormat = "%M-%m-%c"
*.host5.app[4].source.displayStringTextFormat = "sent %p pk (%l)"
*.host5.app[4].messageLength = 12B
*.host5.app[4].sendInterval = 1ms
*.host5.app[4].startTime = 52ms
*.host5.app[4].stopTime = 77ms
*.host5.app[4].display-name = "type2_9"
*.host5.app[4].destPort = 1005
*.host5.app[5].typename = "UdpBasicApp"
*.host5.app[5].destAddresses = "host6"
*.host5.app[5].source.packetNameFormat = "%M-%m-%c"
*.host5.app[5].source.displayStringTextFormat = "sent %p pk (%l)"
*.host5.app[5].messageLength = 12B
*.host5.app[5].sendInterval = 1ms
*.host5.app[5].startTime = 79ms
*.host5.app[5].stopTime = 82ms
*.host5.app[5].display-name = "type2_9"
*.host5.app[5].destPort = 1005
*.host5.app[6].typename = "UdpBasicApp"
*.host5.app[6].destAddresses = "host6"
*.host5.app[6].source.packetNameFormat = "%M-%m-%c"
*.host5.app[6].source.displayStringTextFormat = "sent %p pk (%l)"
*.host5.app[6].messageLength = 12B
*.host5.app[6].sendInterval = 1ms
*.host5.app[6].startTime = 84ms
*.host5.app[6].stopTime = 89ms
*.host5.app[6].display-name = "type2_9"
*.host5.app[6].destPort = 1005
*.host5.app[7].typename = "UdpBasicApp"
*.host5.app[7].destAddresses = "host6"
*.host5.app[7].source.packetNameFormat = "%M-%m-%c"
*.host5.app[7].source.displayStringTextFormat = "sent %p pk (%l)"
*.host5.app[7].messageLength = 12B
*.host5.app[7].sendInterval = 1ms
*.host5.app[7].startTime = 90ms
*.host5.app[7].stopTime = 97ms
*.host5.app[7].display-name = "type2_9"
*.host5.app[7].destPort = 1005
*.host5.app[8].typename = "UdpBasicApp"
*.host5.app[8].destAddresses = "host12"
*.host5.app[8].source.packetNameFormat = "%M-%m-%c"
*.host5.app[8].source.displayStringTextFormat = "sent %p pk (%l)"
*.host5.app[8].messageLength = 12B
*.host5.app[8].sendInterval = 1ms
*.host5.app[8].startTime = 0ms
*.host5.app[8].stopTime = 3ms
*.host5.app[8].display-name = "type2_11"
*.host5.app[8].destPort = 1000
*.host5.app[9].typename = "UdpBasicApp"
*.host5.app[9].destAddresses = "host12"
*.host5.app[9].source.packetNameFormat = "%M-%m-%c"
*.host5.app[9].source.displayStringTextFormat = "sent %p pk (%l)"
*.host5.app[9].messageLength = 12B
*.host5.app[9].sendInterval = 1ms
*.host5.app[9].startTime = 4ms
*.host5.app[9].stopTime = 7ms
*.host5.app[9].display-name = "type2_11"
*.host5.app[9].destPort = 1000
*.host5.app[10].typename = "UdpBasicApp"
*.host5.app[10].destAddresses = "host12"
*.host5.app[10].source.packetNameFormat = "%M-%m-%c"
*.host5.app[10].source.displayStringTextFormat = "sent %p pk (%l)"
*.host5.app[10].messageLength = 12B
*.host5.app[10].sendInterval = 1ms
*.host5.app[10].startTime = 13ms
*.host5.app[10].stopTime = 31ms
*.host5.app[10].display-name = "type2_11"
*.host5.app[10].destPort = 1000
*.host5.app[11].typename = "UdpBasicApp"
*.host5.app[11].destAddresses = "host12"
*.host5.app[11].source.packetNameFormat = "%M-%m-%c"
*.host5.app[11].source.displayStringTextFormat = "sent %p pk (%l)"
*.host5.app[11].messageLength = 12B
*.host5.app[11].sendInterval = 1ms
*.host5.app[11].startTime = 46ms
*.host5.app[11].stopTime = 48ms
*.host5.app[11].display-name = "type2_11"
*.host5.app[11].destPort = 1000
*.host5.app[12].typename = "UdpBasicApp"
*.host5.app[12].destAddresses = "host12"
*.host5.app[12].source.packetNameFormat = "%M-%m-%c"
*.host5.app[12].source.displayStringTextFormat = "sent %p pk (%l)"
*.host5.app[12].messageLength = 12B
*.host5.app[12].sendInterval = 1ms
*.host5.app[12].startTime = 58ms
*.host5.app[12].stopTime = 76ms
*.host5.app[12].display-name = "type2_11"
*.host5.app[12].destPort = 1000
*.host5.app[13].typename = "UdpBasicApp"
*.host5.app[13].destAddresses = "host12"
*.host5.app[13].source.packetNameFormat = "%M-%m-%c"
*.host5.app[13].source.displayStringTextFormat = "sent %p pk (%l)"
*.host5.app[13].messageLength = 12B
*.host5.app[13].sendInterval = 1ms
*.host5.app[13].startTime = 84ms
*.host5.app[13].stopTime = 90ms
*.host5.app[13].display-name = "type2_11"
*.host5.app[13].destPort = 1000
*.host6.numApps = 6
*.host6.app[0].typename = "UdpSinkApp"
*.host6.app[0].io.localPort = 1000
*.host6.app[1].typename = "UdpSinkApp"
*.host6.app[1].io.localPort = 1001
*.host6.app[2].typename = "UdpSinkApp"
*.host6.app[2].io.localPort = 1002
*.host6.app[3].typename = "UdpSinkApp"
*.host6.app[3].io.localPort = 1003
*.host6.app[4].typename = "UdpSinkApp"
*.host6.app[4].io.localPort = 1004
*.host6.app[5].typename = "UdpSinkApp"
*.host6.app[5].io.localPort = 1005
*.host7.numApps = 12
*.host7.app[0].typename = "UdpSourceApp"
*.host7.app[0].io.destAddress = "host8"
*.host7.app[0].source.packetNameFormat = "%M-%m-%c"
*.host7.app[0].source.displayStringTextFormat = "sent %p pk (%l)"
*.host7.app[0].source.packetLength = 19B
*.host7.app[0].source.productionInterval = 1ms
*.host7.app[0].display-name = "type1_0"
*.host7.app[0].io.destPort = 1000
*.host7.app[1].typename = "UdpSinkApp"
*.host7.app[1].io.localPort = 1000
*.host7.app[2].typename = "UdpBasicApp"
*.host7.app[2].destAddresses = "host10"
*.host7.app[2].source.packetNameFormat = "%M-%m-%c"
*.host7.app[2].source.displayStringTextFormat = "sent %p pk (%l)"
*.host7.app[2].messageLength = 16B
*.host7.app[2].sendInterval = 1ms
*.host7.app[2].startTime = 1ms
*.host7.app[2].stopTime = 13ms
*.host7.app[2].display-name = "type2_6"
*.host7.app[2].destPort = 1000
*.host7.app[3].typename = "UdpBasicApp"
*.host7.app[3].destAddresses = "host10"
*.host7.app[3].source.packetNameFormat = "%M-%m-%c"
*.host7.app[3].source.displayStringTextFormat = "sent %p pk (%l)"
*.host7.app[3].messageLength = 16B
*.host7.app[3].sendInterval = 1ms
*.host7.app[3].startTime = 48ms
*.host7.app[3].stopTime = 55ms
*.host7.app[3].display-name = "type2_6"
*.host7.app[3].destPort = 1000
*.host7.app[4].typename = "UdpBasicApp"
*.host7.app[4].destAddresses = "host10"
*.host7.app[4].source.packetNameFormat = "%M-%m-%c"
*.host7.app[4].source.displayStringTextFormat = "sent %p pk (%l)"
*.host7.app[4].messageLength = 16B
*.host7.app[4].sendInterval = 1ms
*.host7.app[4].startTime = 61ms
*.host7.app[4].stopTime = 75ms
*.host7.app[4].display-name = "type2_6"
*.host7.app[4].destPort = 1000
*.host7.app[5].typename = "UdpBasicApp"
*.host7.app[5].destAddresses = "host10"
*.host7.app[5].source.packetNameFormat = "%M-%m-%c"
*.host7.app[5].source.displayStringTextFormat = "sent %p pk (%l)"
*.host7.app[5].messageLength = 16B
*.host7.app[5].sendInterval = 1ms
*.host7.app[5].startTime = 80ms
*.host7.app[5].stopTime = 82ms
*.host7.app[5].display-name = "type2_6"
*.host7.app[5].destPort = 1000
*.host7.app[6].typename = "UdpBasicApp"
*.host7.app[6].destAddresses = "host10"
*.host7.app[6].source.packetNameFormat = "%M-%m-%c"
*.host7.app[6].source.displayStringTextFormat = "sent %p pk (%l)"
*.host7.app[6].messageLength = 16B
*.host7.app[6].sendInterval = 1ms
*.host7.app[6].startTime = 91ms
*.host7.app[6].stopTime = 100ms