[General]
network = TSN_multipath
sim-time-limit = 100ms
*.macForwardingTableConfigurator.typename = ""
*.*.hasStreamRedundancy = true
*.*.bridging.streamRelay.typename = "StreamRelayLayer"
*.*.bridging.streamCoder.typename = "StreamCoderLayer"
*.streamRedundancyConfigurator.typename = "StreamRedundancyConfigurator"
*.host0.eth[0].bitrate = 1000Mbps
*.switch0.eth[0].bitrate = 1000Mbps
*.switch0.eth[1].bitrate = 1400Mbps
*.switch0.eth[2].bitrate = 1300Mbps
*.switch0.eth[3].bitrate = 1400Mbps
*.switch0.eth[4].bitrate = 2200Mbps
*.switch0.eth[5].bitrate = 2400Mbps
*.switch0.eth[6].bitrate = 2400Mbps
*.switch0.eth[7].bitrate = 2400Mbps
*.switch0.eth[8].bitrate = 1600Mbps
*.switch0.eth[9].bitrate = 1800Mbps
*.switch0.eth[10].bitrate = 1900Mbps
*.switch0.eth[11].bitrate = 1800Mbps
*.switch0.eth[12].bitrate = 1400Mbps
*.host1.eth[0].bitrate = 1000Mbps
*.switch1.eth[0].bitrate = 1000Mbps
*.switch1.eth[1].bitrate = 1200Mbps
*.switch1.eth[2].bitrate = 2300Mbps
*.switch1.eth[3].bitrate = 1800Mbps
*.switch1.eth[4].bitrate = 2200Mbps
*.switch1.eth[5].bitrate = 1400Mbps
*.switch1.eth[6].bitrate = 1700Mbps
*.switch1.eth[7].bitrate = 1400Mbps
*.host2.eth[0].bitrate = 1000Mbps
*.switch2.eth[0].bitrate = 1000Mbps
*.switch2.eth[1].bitrate = 1400Mbps
*.switch2.eth[2].bitrate = 2300Mbps
*.switch2.eth[3].bitrate = 1800Mbps
*.switch2.eth[4].bitrate = 1900Mbps
*.switch2.eth[5].bitrate = 1700Mbps
*.switch2.eth[6].bitrate = 1700Mbps
*.switch2.eth[7].bitrate = 1500Mbps
*.switch2.eth[8].bitrate = 1900Mbps
*.switch2.eth[9].bitrate = 1600Mbps
*.switch2.eth[10].bitrate = 2400Mbps
*.switch2.eth[11].bitrate = 2000Mbps
*.switch2.eth[12].bitrate = 1700Mbps
*.host3.eth[0].bitrate = 1000Mbps
*.switch3.eth[0].bitrate = 1000Mbps
*.switch3.eth[1].bitrate = 1300Mbps
*.switch3.eth[2].bitrate = 1800Mbps
*.switch3.eth[3].bitrate = 1600Mbps
*.switch3.eth[4].bitrate = 1800Mbps
*.switch3.eth[5].bitrate = 1900Mbps
*.switch3.eth[6].bitrate = 1200Mbps
*.switch3.eth[7].bitrate = 2300Mbps
*.switch3.eth[8].bitrate = 1900Mbps
*.switch3.eth[9].bitrate = 2400Mbps
*.switch3.eth[10].bitrate = 1300Mbps
*.switch3.eth[11].bitrate = 2100Mbps
*.switch3.eth[12].bitrate = 1700Mbps
*.switch3.eth[13].bitrate = 1300Mbps
*.switch3.eth[14].bitrate = 1600Mbps
*.host4.eth[0].bitrate = 1000Mbps
*.switch4.eth[0].bitrate = 1000Mbps
*.switch4.eth[1].bitrate = 1400Mbps
*.switch4.eth[2].bitrate = 1900Mbps
*.switch4.eth[3].bitrate = 1700Mbps
*.switch4.eth[4].bitrate = 1300Mbps
*.switch4.eth[5].bitrate = 2300Mbps
*.switch4.eth[6].bitrate = 1400Mbps
*.switch4.eth[7].bitrate = 1400Mbps
*.host5.eth[0].bitrate = 1000Mbps
*.switch5.eth[0].bitrate = 1000Mbps
*.switch5.eth[1].bitrate = 2200Mbps
*.switch5.eth[2].bitrate = 1700Mbps
*.switch5.eth[3].bitrate = 1200Mbps
*.switch5.eth[4].bitrate = 1700Mbps
*.switch5.eth[5].bitrate = 2200Mbps
*.switch5.eth[6].bitrate = 1600Mbps
*.switch5.eth[7].bitrate = 1300Mbps
*.switch5.eth[8].bitrate = 1300Mbps
*.switch5.eth[9].bitrate = 1800Mbps
*.switch5.eth[10].bitrate = 1900Mbps
*.switch5.eth[11].bitrate = 1500Mbps
*.switch5.eth[12].bitrate = 1600Mbps
*.switch5.eth[13].bitrate = 1200Mbps
*.switch5.eth[14].bitrate = 2400Mbps
*.switch5.eth[15].bitrate = 2300Mbps
*.host6.eth[0].bitrate = 1000Mbps
*.switch6.eth[0].bitrate = 1000Mbps
*.switch6.eth[1].bitrate = 2400Mbps
*.switch6.eth[2].bitrate = 1200Mbps
*.switch6.eth[3].bitrate = 1800Mbps
*.switch6.eth[4].bitrate = 1800Mbps
*.switch6.eth[5].bitrate = 1400Mbps
*.switch6.eth[6].bitrate = 2400Mbps
*.switch6.eth[7].bitrate = 2100Mbps
*.switch6.eth[8].bitrate = 2300Mbps
*.switch6.eth[9].bitrate = 1600Mbps
*.switch6.eth[10].bitrate = 1200Mbps
*.switch6.eth[11].bitrate = 2200Mbps
*.switch6.eth[12].bitrate = 2200Mbps
*.switch6.eth[13].bitrate = 1600Mbps
*.switch6.eth[14].bitrate = 2000Mbps
*.host7.eth[0].bitrate = 1000Mbps
*.switch7.eth[0].bitrate = 1000Mbps
*.switch7.eth[1].bitrate = 2400Mbps
*.switch7.eth[2].bitrate = 1700Mbps
*.switch7.eth[3].bitrate = 2300Mbps
*.switch7.eth[4].bitrate = 1900Mbps
*.switch7.eth[5].bitrate = 1200Mbps
*.switch7.eth[6].bitrate = 1900Mbps
*.switch7.eth[7].bitrate = 1700Mbps
*.switch7.eth[8].bitrate = 2000Mbps
*.switch7.eth[9].bitrate = 1700Mbps
*.switch7.eth[10].bitrate = 1200Mbps
*.switch7.eth[11].bitrate = 2200Mbps
*.switch7.eth[12].bitrate = 2400Mbps
*.switch7.eth[13].bitrate = 2400Mbps
*.switch7.eth[14].bitrate = 1700Mbps
*.host8.eth[0].bitrate = 1000Mbps
*.switch8.eth[0].bitrate = 1000Mbps
*.switch8.eth[1].bitrate = 1500Mbps
*.switch8.eth[2].bitrate = 1900Mbps
*.switch8.eth[3].bitrate = 2200Mbps
*.switch8.eth[4].bitrate = 2400Mbps
*.switch8.eth[5].bitrate = 1800Mbps
*.switch8.eth[6].bitrate = 1700Mbps
*.switch8.eth[7].bitrate = 1300Mbps
*.switch8.eth[8].bitrate = 1400Mbps
*.switch8.eth[9].bitrate = 2400Mbps
*.switch8.eth[10].bitrate = 1600Mbps
*.switch8.eth[11].bitrate = 1700Mbps
*.switch8.eth[12].bitrate = 1800Mbps
*.switch8.eth[13].bitrate = 1900Mbps
*.host9.eth[0].bitrate = 1000Mbps
*.switch9.eth[0].bitrate = 1000Mbps
*.switch9.eth[1].bitrate = 2400Mbps
*.switch9.eth[2].bitrate = 2400Mbps
*.switch9.eth[3].bitrate = 1500Mbps
*.switch9.eth[4].bitrate = 2400Mbps
*.switch9.eth[5].bitrate = 1800Mbps
*.switch9.eth[6].bitrate = 1400Mbps
*.switch9.eth[7].bitrate = 1400Mbps
*.switch9.eth[8].bitrate = 1600Mbps
*.switch9.eth[9].bitrate = 1400Mbps
*.switch9.eth[10].bitrate = 2300Mbps
*.switch9.eth[11].bitrate = 2000Mbps
*.switch9.eth[12].bitrate = 1900Mbps
*.host0.numApps = 8
*.host0.app[0].typename = "UdpSinkApp"
*.host0.app[0].io.localPort = 1000
*.host0.app[1].typename = "UdpSourceApp"
*.host0.app[1].io.destAddress = "host6"
*.host0.app[1].source.packetNameFormat = "%M-%m-%c"
*.host0.app[1].source.displayStringTextFormat = "sent %p pk (%l)"
*.host0.app[1].source.packetLength = 16B
*.host0.app[1].source.productionInterval = 1ms
*.host0.app[1].display-name = "type1_5"
*.host0.app[1].io.destPort = 1002
*.host0.app[2].typename = "UdpBasicApp"
*.host0.app[2].destAddresses = "host2"
*.host0.app[2].source.packetNameFormat = "%M-%m-%c"
*.host0.app[2].source.displayStringTextFormat = "sent %p pk (%l)"
*.host0.app[2].messageLength = 12B
*.host0.app[2].sendInterval = 1ms
*.host0.app[2].startTime = 1ms
*.host0.app[2].stopTime = 13ms
*.host0.app[2].display-name = "type2_1"
*.host0.app[2].destPort = 1000
*.host0.app[3].typename = "UdpBasicApp"
*.host0.app[3].destAddresses = "host2"
*.host0.app[3].source.packetNameFormat = "%M-%m-%c"
*.host0.app[3].source.displayStringTextFormat = "sent %p pk (%l)"
*.host0.app[3].messageLength = 12B
*.host0.app[3].sendInterval = 1ms
*.host0.app[3].startTime = 32ms
*.host0.app[3].stopTime = 39ms
*.host0.app[3].display-name = "type2_1"
*.host0.app[3].destPort = 1000
*.host0.app[4].typename = "UdpBasicApp"
*.host0.app[4].destAddresses = "host2"
*.host0.app[4].source.packetNameFormat = "%M-%m-%c"
*.host0.app[4].source.displayStringTextFormat = "sent %p pk (%l)"
*.host0.app[4].messageLength = 12B
*.host0.app[4].sendInterval = 1ms
*.host0.app[4].startTime = 40ms
*.host0.app[4].stopTime = 49ms
*.host0.app[4].display-name = "type2_1"
*.host0.app[4].destPort = 1000
*.host0.app[5].typename = "UdpBasicApp"
*.host0.app[5].destAddresses = "host2"
*.host0.app[5].source.packetNameFormat = "%M-%m-%c"
*.host0.app[5].source.displayStringTextFormat = "sent %p pk (%l)"
*.host0.app[5].messageLength = 12B
*.host0.app[5].sendInterval = 1ms
*.host0.app[5].startTime = 50ms
*.host0.app[5].stopTime = 60ms
*.host0.app[5].display-name = "type2_1"
*.host0.app[5].destPort = 1000
*.host0.app[6].typename = "UdpBasicApp"
*.host0.app[6].destAddresses = "host2"
*.host0.app[6].source.packetNameFormat = "%M-%m-%c"
*.host0.app[6].source.displayStringTextFormat = "sent %p pk (%l)"
*.host0.app[6].messageLength = 12B
*.host0.app[6].sendInterval = 1ms
*.host0.app[6].startTime = 64ms
*.host0.app[6].stopTime = 66ms
*.host0.app[6].display-name = "type2_1"
*.host0.app[6].destPort = 1000
*.host0.app[7].typename = "UdpBasicApp"
*.host0.app[7].destAddresses = "host2"
*.host0.app[7].source.packetNameFormat = "%M-%m-%c"
*.host0.app[7].source.displayStringTextFormat = "sent %p pk (%l)"
*.host0.app[7].messageLength = 12B
*.host0.app[7].sendInterval = 1ms
*.host0.app[7].startTime = 85ms
*.host0.app[7].stopTime = 87ms
*.host0.app[7].display-name = "type2_1"
*.host0.app[7].destPort = 1000
*.host1.numApps = 6
*.host1.app[0].typename = "UdpBasicApp"
*.host1.app[0].destAddresses = "host6"
*.host1.app[0].source.packetNameFormat = "%M-%m-%c"
*.host1.app[0].source.displayStringTextFormat = "sent %p pk (%l)"
*.host1.app[0].messageLength = 24B
*.host1.app[0].sendInterval = 1ms
*.host1.app[0].startTime = 3ms
*.host1.app[0].stopTime = 7ms
*.host1.app[0].display-name = "type2_4"
*.host1.app[0].destPort = 1003
*.host1.app[1].typename = "UdpBasicApp"
*.host1.app[1].destAddresses = "host6"
*.host1.app[1].source.packetNameFormat = "%M-%m-%c"
*.host1.app[1].source.displayStringTextFormat = "sent %p pk (%l)"
*.host1.app[1].messageLength = 24B
*.host1.app[1].sendInterval = 1ms
*.host1.app[1].startTime = 11ms
*.host1.app[1].stopTime = 31ms
*.host1.app[1].display-name = "type2_4"
*.host1.app[1].destPort = 1003
*.host1.app[2].typename = "UdpBasicApp"
*.host1.app[2].destAddresses = "host6"
*.host1.app[2].source.packetNameFormat = "%M-%m-%c"
*.host1.app[2].source.displayStringTextFormat = "sent %p pk (%l)"
*.host1.app[2].messageLength = 24B
*.host1.app[2].sendInterval = 1ms
*.host1.app[2].startTime = 42ms
*.host1.app[2].stopTime = 76ms
*.host1.app[2].display-name = "type2_4"
*.host1.app[2].destPort = 1003
*.host1.app[3].typename = "UdpBasicApp"
*.host1.app[3].destAddresses = "host6"
*.host1.app[3].source.packetNameFormat = "%M-%m-%c"
*.host1.app[3].source.displayStringTextFormat = "sent %p pk (%l)"
*.host1.app[3].messageLength = 24B
*.host1.app[3].sendInterval = 1ms
*.host1.app[3].startTime = 77ms
*.host1.app[3].stopTime = 80ms
*.host1.app[3].display-name = "type2_4"
*.host1.app[3].destPort = 1003
*.host1.app[4].typename = "UdpBasicApp"
*.host1.app[4].destAddresses = "host6"
*.host1.app[4].source.packetNameFormat = "%M-%m-%c"
*.host1.app[4].source.displayStringTextFormat = "sent %p pk (%l)"
*.host1.app[4].messageLength = 24B
*.host1.app[4].sendInterval = 1ms
*.host1.app[4].startTime = 99ms
*.host1.app[4].stopTime = 100ms
*.host1.app[4].display-name = "type2_4"
*.host1.app[4].destPort = 1003
*.host1.app[5].typename = "UdpSinkApp"
*.host1.app[5].io.localPort = 1000
*.host2.numApps = 9
*.host2.app[0].typename = "UdpBasicApp"
*.host2.app[0].destAddresses = "host9"
*.host2.app[0].source.packetNameFormat = "%M-%m-%c"
*.host2.app[0].source.displayStringTextFormat = "sent %p pk (%l)"
*.host2.app[0].messageLength = 19B
*.host2.app[0].sendInterval = 1ms
*.host2.app[0].startTime = 7ms
*.host2.app[0].stopTime = 18ms
*.host2.app[0].display-name = "type2_0"
*.host2.app[0].destPort = 1000
*.host2.app[1].typename = "UdpBasicApp"
*.host2.app[1].destAddresses = "host9"
*.host2.app[1].source.packetNameFormat = "%M-%m-%c"
*.host2.app[1].source.displayStringTextFormat = "sent %p pk (%l)"
*.host2.app[1].messageLength = 19B
*.host2.app[1].sendInterval = 1ms
*.host2.app[1].startTime = 21ms
*.host2.app[1].stopTime = 39ms
*.host2.app[1].display-name = "type2_0"
*.host2.app[1].destPort = 1000
*.host2.app[2].typename = "UdpBasicApp"
*.host2.app[2].destAddresses = "host9"
*.host2.app[2].source.packetNameFormat = "%M-%m-%c"
*.host2.app[2].source.displayStringTextFormat = "sent %p pk (%l)"
*.host2.app[2].messageLength = 19B
*.host2.app[2].sendInterval = 1ms
*.host2.app[2].startTime = 40ms
*.host2.app[2].stopTime = 42ms
*.host2.app[2].display-name = "type2_0"
*.host2.app[2].destPort = 1000
*.host2.app[3].typename = "UdpBasicApp"
*.host2.app[3].destAddresses = "host9"
*.host2.app[3].source.packetNameFormat = "%M-%m-%c"
*.host2.app[3].source.displayStringTextFormat = "sent %p pk (%l)"
*.host2.app[3].messageLength = 19B
*.host2.app[3].sendInterval = 1ms
*.host2.app[3].startTime = 43ms
*.host2.app[3].stopTime = 46ms
*.host2.app[3].display-name = "type2_0"
*.host2.app[3].destPort = 1000
*.host2.app[4].typename = "UdpBasicApp"
*.host2.app[4].destAddresses = "host9"
*.host2.app[4].source.packetNameFormat = "%M-%m-%c"
*.host2.app[4].source.displayStringTextFormat = "sent %p pk (%l)"
*.host2.app[4].messageLength = 19B
*.host2.app[4].sendInterval = 1ms
*.host2.app[4].startTime = 64ms
*.host2.app[4].stopTime = 68ms
*.host2.app[4].display-name = "type2_0"
*.host2.app[4].destPort = 1000
*.host2.app[5].typename = "UdpBasicApp"
*.host2.app[5].destAddresses = "host9"
*.host2.app[5].source.packetNameFormat = "%M-%m-%c"
*.host2.app[5].source.displayStringTextFormat = "sent %p pk (%l)"
*.host2.app[5].messageLength = 19B
*.host2.app[5].sendInterval = 1ms
*.host2.app[5].startTime = 69ms
*.host2.app[5].stopTime = 79ms
*.host2.app[5].display-name = "type2_0"
*.host2.app[5].destPort = 1000
*.host2.app[6].typename = "UdpBasicApp"
*.host2.app[6].destAddresses = "host9"
*.host2.app[6].source.packetNameFormat = "%M-%m-%c"
*.host2.app[6].source.displayStringTextFormat = "sent %p pk (%l)"
*.host2.app[6].messageLength = 19B
*.host2.app[6].sendInterval = 1ms
*.host2.app[6].startTime = 85ms
*.host2.app[6].stopTime = 86ms
*.host2.app[6].display-name = "type2_0"
*.host2.app[6].destPort = 1000
*.host2.app[7].typename = "UdpBasicApp"
*.host2.app[7].destAddresses = "host9"
*.host2.app[7].source.packetNameFormat = "%M-%m-%c"
*.host2.app[7].source.displayStringTextFormat = "sent %p pk (%l)"
*.host2.app[7].messageLength = 19B
*.host2.app[7].sendInterval = 1ms
*.host2.app[7].startTime = 89ms
*.host2.app[7].stopTime = 100ms
*.host2.app[7].display-name = "type2_0"
*.host2.app[7].destPort = 1000
*.host2.app[8].typename = "UdpSinkApp"
*.host2.app[8].io.localPort = 1000
*.host3.numApps = 6
*.host3.app[0].typename = "UdpSourceApp"
*.host3.app[0].io.destAddress = "host8"
*.host3.app[0].source.packetNameFormat = "%M-%m-%c"
*.host3.app[0].source.displayStringTextFormat = "sent %p pk (%l)"
*.host3.app[0].source.packetLength = 23B
*.host3.app[0].source.productionInterval = 1ms
*.host3.app[0].display-name = "type1_0"
*.host3.app[0].io.destPort = 1000
*.host3.app[1].typename = "UdpSourceApp"
*.host3.app[1].io.destAddress = "host6"
*.host3.app[1].source.packetNameFormat = "%M-%m-%c"
*.host3.app[1].source.displayStringTextFormat = "sent %p pk (%l)"
*.host3.app[1].source.packetLength = 20B
*.host3.app[1].source.productionInterval = 1ms
*.host3.app[1].display-name = "type1_2"
*.host3.app[1].io.destPort = 1000
*.host3.app[2].typename = "UdpBasicApp"
*.host3.app[2].destAddresses = "host1"
*.host3.app[2].source.packetNameFormat = "%M-%m-%c"
*.host3.app[2].source.displayStringTextFormat = "sent %p pk (%l)"
*.host3.app[2].messageLength = 12B
*.host3.app[2].sendInterval = 1ms
*.host3.app[2].startTime = 36ms
*.host3.app[2].stopTime = 52ms
*.host3.app[2].display-name = "type2_5"
*.host3.app[2].destPort = 1000
*.host3.app[3].typename = "UdpBasicApp"
*.host3.app[3].destAddresses = "host1"
*.host3.app[3].source.packetNameFormat = "%M-%m-%c"
*.host3.app[3].source.displayStringTextFormat = "sent %p pk (%l)"
*.host3.app[3].messageLength = 12B
*.host3.app[3].sendInterval = 1ms
*.host3.app[3].startTime = 54ms
*.host3.app[3].stopTime = 57ms
*.host3.app[3].display-name = "type2_5"
*.host3.app[3].destPort = 1000
*.host3.app[4].typename = "UdpBasicApp"
*.host3.app[4].destAddresses = "host1"
*.host3.app[4].source.packetNameFormat = "%M-%m-%c"
*.host3.app[4].source.displayStringTextFormat = "sent %p pk (%l)"
*.host3.app[4].messageLength = 12B
*.host3.app[4].sendInterval = 1ms
*.host3.app[4].startTime = 75ms
*.host3.app[4].stopTime = 85ms
*.host3.app[4].display-name = "type2_5"
*.host3.app[4].destPort = 1000
*.host3.app[5].typename = "UdpBasicApp"
*.host3.app[5].destAddresses = "host1"
*.host3.app[5].source.packetNameFormat = "%M-%m-%c"
*.host3.app[5].source.displayStringTextFormat = "sent %p pk (%l)"
*.host3.app[5].messageLength = 12B
*.host3.app[5].sendInterval = 1ms
*.host3.app[5].startTime = 88ms
*.host3.app[5].stopTime = 100ms
*.host3.app[5].display-name = "type2_5"
*.host3.app[5].destPort = 1000
*.host4.numApps = 0
*.host5.numApps = 1
*.host5.app[0].typename = "UdpSinkApp"
*.host5.app[0].io.localPort = 1000
*.host6.numApps = 9
*.host6.app[0].typename = "UdpSinkApp"
*.host6.app[0].io.localPort = 1000
*.host6.app[1].typename = "UdpSinkApp"
*.host6.app[1].io.localPort = 1001
*.host6.app[2].typename = "UdpSinkApp"
*.host6.app[2].io.localPort = 1002
*.host6.app[3].typename = "UdpBasicApp"
*.host6.app[3].destAddresses = "host7"
*.host6.app[3].source.packetNameFormat = "%M-%m-%c"
*.host6.app[3].source.displayStringTextFormat = "sent %p pk (%l)"
*.host6.app[3].messageLength = 23B
*.host6.app[3].sendInterval = 1ms
*.host6.app[3].startTime = 23ms
*.host6.app[3].stopTime = 27ms
*.host6.app[3].display-name = "type2_3"
*.host6.app[3].destPort = 1000
*.host6.app[4].typename = "UdpBasicApp"
*.host6.app[4].destAddresses = "host7"
*.host6.app[4].source.packetNameFormat = "%M-%m-%c"
*.host6.app[4].source.displayStringTextFormat = "sent %p pk (%l)"
*.host6.app[4].messageLength = 23B
*.host6.app[4].sendInterval = 1ms
*.host6.app[4].startTime = 33ms
*.host6.app[4].stopTime = 48ms
*.host6.app[4].display-name = "type2_3"
*.host6.app[4].destPort = 1000
*.host6.app[5].typename = "UdpBasicApp"
*.host6.app[5].destAddresses = "host7"
*.host6.app[5].source.packetNameFormat = "%M-%m-%c"
*.host6.app[5].source.displayStringTextFormat = "sent %p pk (%l)"
*.host6.app[5].messageLength = 23B
*.host6.app[5].sendInterval = 1ms
*.host6.app[5].startTime = 53ms
*.host6.app[5].stopTime = 61ms
*.host6.app[5].display-name = "type2_3"
*.host6.app[5].destPort = 1000
*.host6.app[6].typename = "UdpBasicApp"
*.host6.app[6].destAddresses = "host7"
*.host6.app[6].source.packetNameFormat = "%M-%m-%c"
*.host6.app[6].source.displayStringTextFormat = "sent %p pk (%l)"
*.host6.app[6].messageLength = 23B
*.host6.app[6].sendInterval = 1ms
*.host6.app[6].startTime = 63ms
*.host6.app[6].stopTime = 69ms
*.host6.app[6].display-name = "type2_3"
*.host6.app[6].destPort = 1000
*.host6.app[7].typename = "UdpBasicApp"
*.host6.app[7].destAddresses = "host7"
*.host6.app[7].source.packetNameFormat = "%M-%m-%c"
*.host6.app[7].source.displayStringTextFormat = "sent %p pk (%l)"
*.host6.app[7].messageLength = 23B
*.host6.app[7].sendInterval = 1ms
*.host6.app[7].startTime = 92ms
*.host6.app[7].stopTime = 95ms
*.host6.app[7].display-name = "type2_3"
*.host6.app[7].destPort = 1000
*.host6.app[8].typename = "UdpSinkApp"
*.host6.app[8].io.localPort = 1003
*.host7.numApps = 2
*.host7.app[0].typename = "UdpSourceApp"
*.host7.app[0].io.destAddress = "host0"
*.host7.app[0].source.packetNameFormat = "%M-%m-%c"
*.host7.app[0].source.displayStringTextFormat = "sent %p pk (%l)"
*.host7.app[0].source.packetLength = 24B
*.host7.app[0].source.productionInterval = 1ms
*.host7.app[0].display-name = "type1_1"
*.host7.app[0].io.destPort = 1000
*.host7.app[1].typename = "UdpSinkApp"
*.host7.app[1].io.localPort = 1000
*.host8.numApps = 8
*.host8.app[0].typename = "UdpSinkApp"
*.host8.app[0].io.localPort = 1000
*.host8.app[1].typename = "UdpSinkApp"
*.host8.app[1].io.localPort = 1001
*.host8.app[2].typename = "UdpBasicApp"
*.host8.app[2].destAddresses = "host5"
*.host8.app[2].source.packetNameFormat = "%M-%m-%c"
*.host8.app[2].source.displayStringTextFormat = "sent %p pk (%l)"
*.host8.app[2].messageLength = 20B
*.host8.app[2].sendInterval = 1ms
*.host8.app[2].startTime = 4ms
*.host8.app[2].stopTime = 18ms
*.host8.app[2].display-name = "type2_2"
*.host8.app[2].destPort = 1000
*.host8.app[3].typename = "UdpBasicApp"
*.host8.app[3].destAddresses = "host5"
*.host8.app[3].source.packetNameFormat = "%M-%m-%c"
*.host8.app[3].source.displayStringTextFormat = "sent %p pk (%l)"
*.host8.app[3].messageLength = 20B
*.host8.app[3].sendInterval = 1ms
*.host8.app[3].startTime = 19ms
*.host8.app[3].stopTime = 36ms
*.host8.app[3].display-name = "type2_2"
*.host8.app[3].destPort = 1000
*.host8.app[4].typename = "UdpBasicApp"
*.host8.app[4].destAddresses = "host5"
*.host8.app[4].source.packetNameFormat = "%M-%m-%c"
*.host8.app[4].source.displayStringTextFormat = "sent %p pk (%l)"
*.host8.app[4].messageLength = 20B
*.host8.app[4].sendInterval = 1ms
*.host8.app[4].startTime = 38ms
*.host8.app[4].stopTime = 48ms
*.host8.app[4].display-name = "type2_2"
*.host8.app[4].destPort = 1000
*.host8.app[5].typename = "UdpBasicApp"
*.host8.app[5].destAddresses = "host5"
*.host8.app[5].source.packetNameFormat = "%M-%m-%c"
*.host8.app[5].source.displayStringTextFormat = "sent %p pk (%l)"
*.host8.app[5].messageLength = 20B
*.host8.app[5].sendInterval = 1ms
*.host8.app[5].startTime = 49ms
*.host8.app[5].stopTime = 51ms
*.host8.app[5].display-name = "type2_2"
*.host8.app[5].destPort = 1000
*.host8.app[6].typename = "UdpBasicApp"
*.host8.app[6].destAddresses = "host5"
*.host8.app[6].source.packetNameFormat = "%M-%m-%c"
*.host8.app[6].source.displayStringTextFormat = "sent %p pk (%l)"
*.host8.app[6].messageLength = 20B
*.host8.app[6].sendInterval = 1ms
*.host8.app[6].startTime = 60ms
*.host8.app[6].stopTime = 84ms
*.host8.app[6].display-name = "type2_2"
*.host8.app[6].destPort = 1000
*.host8.app[7].typename = "UdpBasicApp"
*.host8.app[7].destAddresses = "host5"
*.host8.app[7].source.packetNameFormat = "%M-%m-%c"
*.host8.app[7].source.displayStringTextFormat = "sent %p pk (%l)"
*.host8.app[7].messageLength = 20B
*.host8.app[7].sendInterval = 1ms
*.host8.app[7].startTime = 88ms
*.host8.app[7].stopTime = 94ms
*.host8.app[7].display-name = "type2_2"
*.host8.app[7].destPort = 1000
*.host9.numApps = 3
*.host9.app[0].typename = "UdpSourceApp"
*.host9.app[0].io.destAddress = "host6"
*.host9.app[0].source.packetNameFormat = "%M-%m-%c"
*.host9.app[0].source.displayStringTextFormat = "sent %p pk (%l)"
*.host9.app[0].source.packetLength = 18B
*.host9.app[0].source.productionInterval = 1ms
*.host9.app[0].display-name = "type1_3"
*.host9.app[0].io.destPort = 1001
*.host9.app[1].typename = "UdpSourceApp"
*.host9.app[1].io.destAddress = "host8"
*.host9.app[1].source.packetNameFormat = "%M-%m-%c"
*.host9.app[1].source.displayStringTextFormat = "sent %p pk (%l)"
*.host9.app[1].source.packetLength = 17B
*.host9.app[1].source.productionInterval = 1ms
*.host9.app[1].display-name = "type1_4"
*.host9.app[1].io.destPort = 1001
*.host9.app[2].typename = "UdpSinkApp"
*.host9.app[2].io.localPort = 1000
*.streamRedundancyConfigurator.configuration = [
	{
		name: "S1-0",
		packetFilter: "*-type1_0-*",
		source: "host3",
		destination: "host8",
		trees: [[["host3", "switch3", "switch8", "host8"]]]
	},
	{
		name: "S1-1",
		packetFilter: "*-type1_1-*",
		source: "host7",
		destination: "host0",
		trees: [[["host7", "switch7", "switch0", "host0"]]]
	},
	{
		name: "S1-2",
		packetFilter: "*-type1_2-*",
		source: "host3",
		destination: "host6",
		trees: [[["host3", "switch3", "switch0", "switch6", "host6"]]]
	},
	{
		name: "S1-3",
		packetFilter: "*-type1_3-*",
		source: "host9",
		destination: "host6",
		trees: [[["host9", "switch9", "switch6", "host6"]]]
	},
	{
		name: "S1-4",
		packetFilter: "*-type1_4-*",
		source: "host9",
		destination: "host8",
		trees: [[["host9", "switch9", "switch8", "host8"]]]
	},
	{
		name: "S1-5",
		packetFilter: "*-type1_5-*",
		source: "host0",
		destination: "host6",
		trees: [[["host0", "switch0", "switch6", "host6"]]]
	},
	{
		name: "S2-0",
		packetFilter: "*-type2_0-*",
		source: "host2",
		destination: "host9",
		trees: [[["host2",
	 "switch2",
	 "switch1",
	 "switch6",
	 "switch3",
	 "switch5",
	 "switch7",
	 "switch9",
	 "host9"]]]
	},
	{
		name: "S2-1",
		packetFilter: "*-type2_1-*",
		source: "host0",
		destination: "host2",
		trees: [[["host0", "switch0", "switch2", "host2"]]]
	},
	{
		name: "S2-2",
		packetFilter: "*-type2_2-*",
		source: "host8",
		destination: "host5",
		trees: [[["host8", "switch8", "switch4", "switch5", "host5"]]]
	},
	{
		name: "S2-3",
		packetFilter: "*-type2_3-*",
		source: "host6",
		destination: "host7",
		trees: [[["host6", "switch6", "switch7", "host7"]]]
	},
	{
		name: "S2-4",
		packetFilter: "*-type2_4-*",
		source: "host1",
		destination: "host6",
		trees: [[["host1", "switch1", "switch6", "host6"]]]
	},
	{
		name: "S2-5",
		packetFilter: "*-type2_5-*",
		source: "host3",
		destination: "host1",
		trees: [[["host3",
	 "switch3",
	 "switch5",
	 "switch7",
	 "switch9",
	 "switch0",
	 "switch2",
	 "switch1",
	 "host1"]]]
	}]
	

