[General]
network = TSN_multipath
sim-time-limit = 100ms
*.macForwardingTableConfigurator.typename = ""
*.*.hasStreamRedundancy = true
*.*.bridging.streamRelay.typename = "StreamRelayLayer"
*.*.bridging.streamCoder.typename = "StreamCoderLayer"
*.streamRedundancyConfigurator.typename = "StreamRedundancyConfigurator"
*.host0.eth[0].bitrate = 1000Mbps
*.switch0.eth[0].bitrate = 1000Mbps
*.switch0.eth[1].bitrate = 1500Mbps
*.switch0.eth[2].bitrate = 1900Mbps
*.switch0.eth[3].bitrate = 1700Mbps
*.switch0.eth[4].bitrate = 1800Mbps
*.switch0.eth[5].bitrate = 1400Mbps
*.switch0.eth[6].bitrate = 2000Mbps
*.switch0.eth[7].bitrate = 1300Mbps
*.switch0.eth[8].bitrate = 2100Mbps
*.switch0.eth[9].bitrate = 2200Mbps
*.switch0.eth[10].bitrate = 2200Mbps
*.switch0.eth[11].bitrate = 1600Mbps
*.switch0.eth[12].bitrate = 1800Mbps
*.host1.eth[0].bitrate = 1000Mbps
*.switch1.eth[0].bitrate = 1000Mbps
*.switch1.eth[1].bitrate = 1500Mbps
*.switch1.eth[2].bitrate = 2100Mbps
*.switch1.eth[3].bitrate = 2100Mbps
*.switch1.eth[4].bitrate = 2100Mbps
*.switch1.eth[5].bitrate = 2400Mbps
*.switch1.eth[6].bitrate = 1700Mbps
*.switch1.eth[7].bitrate = 2400Mbps
*.switch1.eth[8].bitrate = 1300Mbps
*.switch1.eth[9].bitrate = 1500Mbps
*.switch1.eth[10].bitrate = 2200Mbps
*.switch1.eth[11].bitrate = 1400Mbps
*.switch1.eth[12].bitrate = 1200Mbps
*.host2.eth[0].bitrate = 1000Mbps
*.switch2.eth[0].bitrate = 1000Mbps
*.switch2.eth[1].bitrate = 1900Mbps
*.switch2.eth[2].bitrate = 1300Mbps
*.switch2.eth[3].bitrate = 2300Mbps
*.switch2.eth[4].bitrate = 2000Mbps
*.switch2.eth[5].bitrate = 2300Mbps
*.host3.eth[0].bitrate = 1000Mbps
*.switch3.eth[0].bitrate = 1000Mbps
*.switch3.eth[1].bitrate = 1700Mbps
*.switch3.eth[2].bitrate = 2100Mbps
*.switch3.eth[3].bitrate = 2200Mbps
*.switch3.eth[4].bitrate = 1300Mbps
*.switch3.eth[5].bitrate = 1300Mbps
*.switch3.eth[6].bitrate = 2100Mbps
*.switch3.eth[7].bitrate = 1400Mbps
*.switch3.eth[8].bitrate = 1300Mbps
*.switch3.eth[9].bitrate = 1600Mbps
*.switch3.eth[10].bitrate = 2300Mbps
*.switch3.eth[11].bitrate = 2300Mbps
*.switch3.eth[12].bitrate = 1300Mbps
*.switch3.eth[13].bitrate = 1900Mbps
*.switch3.eth[14].bitrate = 2400Mbps
*.host4.eth[0].bitrate = 1000Mbps
*.switch4.eth[0].bitrate = 1000Mbps
*.switch4.eth[1].bitrate = 2100Mbps
*.switch4.eth[2].bitrate = 1300Mbps
*.switch4.eth[3].bitrate = 2300Mbps
*.switch4.eth[4].bitrate = 2100Mbps
*.switch4.eth[5].bitrate = 2100Mbps
*.switch4.eth[6].bitrate = 1200Mbps
*.switch4.eth[7].bitrate = 1400Mbps
*.switch4.eth[8].bitrate = 2000Mbps
*.host5.eth[0].bitrate = 1000Mbps
*.switch5.eth[0].bitrate = 1000Mbps
*.switch5.eth[1].bitrate = 1800Mbps
*.switch5.eth[2].bitrate = 2400Mbps
*.switch5.eth[3].bitrate = 2100Mbps
*.switch5.eth[4].bitrate = 2200Mbps
*.switch5.eth[5].bitrate = 1500Mbps
*.switch5.eth[6].bitrate = 1300Mbps
*.switch5.eth[7].bitrate = 2100Mbps
*.switch5.eth[8].bitrate = 1200Mbps
*.switch5.eth[9].bitrate = 2000Mbps
*.switch5.eth[10].bitrate = 1200Mbps
*.switch5.eth[11].bitrate = 1300Mbps
*.switch5.eth[12].bitrate = 2400Mbps
*.host6.eth[0].bitrate = 1000Mbps
*.switch6.eth[0].bitrate = 1000Mbps
*.switch6.eth[1].bitrate = 1400Mbps
*.switch6.eth[2].bitrate = 1600Mbps
*.switch6.eth[3].bitrate = 2200Mbps
*.switch6.eth[4].bitrate = 2000Mbps
*.switch6.eth[5].bitrate = 1200Mbps
*.switch6.eth[6].bitrate = 2000Mbps
*.switch6.eth[7].bitrate = 1800Mbps
*.switch6.eth[8].bitrate = 2200Mbps
*.host7.eth[0].bitrate = 1000Mbps
*.switch7.eth[0].bitrate = 1000Mbps
*.switch7.eth[1].bitrate = 1400Mbps
*.switch7.eth[2].bitrate = 1700Mbps
*.switch7.eth[3].bitrate = 1300Mbps
*.switch7.eth[4].bitrate = 2100Mbps
*.switch7.eth[5].bitrate = 1800Mbps
*.switch7.eth[6].bitrate = 1900Mbps
*.switch7.eth[7].bitrate = 1200Mbps
*.host8.eth[0].bitrate = 1000Mbps
*.switch8.eth[0].bitrate = 1000Mbps
*.switch8.eth[1].bitrate = 2000Mbps
*.switch8.eth[2].bitrate = 1300Mbps
*.switch8.eth[3].bitrate = 1600Mbps
*.switch8.eth[4].bitrate = 1200Mbps
*.switch8.eth[5].bitrate = 1800Mbps
*.switch8.eth[6].bitrate = 1400Mbps
*.switch8.eth[7].bitrate = 2300Mbps
*.switch8.eth[8].bitrate = 2400Mbps
*.switch8.eth[9].bitrate = 1400Mbps
*.switch8.eth[10].bitrate = 1300Mbps
*.switch8.eth[11].bitrate = 1800Mbps
*.host9.eth[0].bitrate = 1000Mbps
*.switch9.eth[0].bitrate = 1000Mbps
*.switch9.eth[1].bitrate = 1300Mbps
*.switch9.eth[2].bitrate = 2400Mbps
*.switch9.eth[3].bitrate = 2300Mbps
*.switch9.eth[4].bitrate = 2300Mbps
*.switch9.eth[5].bitrate = 1800Mbps
*.switch9.eth[6].bitrate = 1200Mbps
*.switch9.eth[7].bitrate = 2000Mbps
*.switch9.eth[8].bitrate = 2400Mbps
*.switch9.eth[9].bitrate = 2200Mbps
*.host0.numApps = 9
*.host0.app[0].typename = "UdpSourceApp"
*.host0.app[0].io.destAddress = "host6"
*.host0.app[0].source.packetNameFormat = "%M-%m-%c"
*.host0.app[0].source.displayStringTextFormat = "sent %p pk (%l)"
*.host0.app[0].source.packetLength = 15B
*.host0.app[0].source.productionInterval = 1ms
*.host0.app[0].display-name = "type1_0"
*.host0.app[0].io.destPort = 1000
*.host0.app[1].typename = "UdpSinkApp"
*.host0.app[1].io.localPort = 1000
*.host0.app[2].typename = "UdpBasicApp"
*.host0.app[2].destAddresses = "host8"
*.host0.app[2].source.packetNameFormat = "%M-%m-%c"
*.host0.app[2].source.displayStringTextFormat = "sent %p pk (%l)"
*.host0.app[2].messageLength = 21B
*.host0.app[2].sendInterval = 1ms
*.host0.app[2].startTime = 0ms
*.host0.app[2].stopTime = 2ms
*.host0.app[2].display-name = "type2_5"
*.host0.app[2].destPort = 1001
*.host0.app[3].typename = "UdpBasicApp"
*.host0.app[3].destAddresses = "host8"
*.host0.app[3].source.packetNameFormat = "%M-%m-%c"
*.host0.app[3].source.displayStringTextFormat = "sent %p pk (%l)"
*.host0.app[3].messageLength = 21B
*.host0.app[3].sendInterval = 1ms
*.host0.app[3].startTime = 10ms
*.host0.app[3].stopTime = 11ms
*.host0.app[3].display-name = "type2_5"
*.host0.app[3].destPort = 1001
*.host0.app[4].typename = "UdpBasicApp"
*.host0.app[4].destAddresses = "host8"
*.host0.app[4].source.packetNameFormat = "%M-%m-%c"
*.host0.app[4].source.displayStringTextFormat = "sent %p pk (%l)"
*.host0.app[4].messageLength = 21B
*.host0.app[4].sendInterval = 1ms
*.host0.app[4].startTime = 13ms
*.host0.app[4].stopTime = 23ms
*.host0.app[4].display-name = "type2_5"
*.host0.app[4].destPort = 1001
*.host0.app[5].typename = "UdpBasicApp"
*.host0.app[5].destAddresses = "host8"
*.host0.app[5].source.packetNameFormat = "%M-%m-%c"
*.host0.app[5].source.displayStringTextFormat = "sent %p pk (%l)"
*.host0.app[5].messageLength = 21B
*.host0.app[5].sendInterval = 1ms
*.host0.app[5].startTime = 53ms
*.host0.app[5].stopTime = 60ms
*.host0.app[5].display-name = "type2_5"
*.host0.app[5].destPort = 1001
*.host0.app[6].typename = "UdpBasicApp"
*.host0.app[6].destAddresses = "host8"
*.host0.app[6].source.packetNameFormat = "%M-%m-%c"
*.host0.app[6].source.displayStringTextFormat = "sent %p pk (%l)"
*.host0.app[6].messageLength = 21B
*.host0.app[6].sendInterval = 1ms
*.host0.app[6].startTime = 70ms
*.host0.app[6].stopTime = 79ms
*.host0.app[6].display-name = "type2_5"
*.host0.app[6].destPort = 1001
*.host0.app[7].typename = "UdpBasicApp"
*.host0.app[7].destAddresses = "host8"
*.host0.app[7].source.packetNameFormat = "%M-%m-%c"
*.host0.app[7].source.displayStringTextFormat = "sent %p pk (%l)"
*.host0.app[7].messageLength = 21B
*.host0.app[7].sendInterval = 1ms
*.host0.app[7].startTime = 91ms
*.host0.app[7].stopTime = 92ms
*.host0.app[7].display-name = "type2_5"
*.host0.app[7].destPort = 1001
*.host0.app[8].typename = "UdpBasicApp"
*.host0.app[8].destAddresses = "host8"
*.host0.app[8].source.packetNameFormat = "%M-%m-%c"
*.host0.app[8].source.displayStringTextFormat = "sent %p pk (%l)"
*.host0.app[8].messageLength = 21B
*.host0.app[8].sendInterval = 1ms
*.host0.app[8].startTime = 96ms
*.host0.app[8].stopTime = 99ms
*.host0.app[8].display-name = "type2_5"
*.host0.app[8].destPort = 1001
*.host1.numApps = 9
*.host1.app[0].typename = "UdpSourceApp"
*.host1.app[0].io.destAddress = "host3"
*.host1.app[0].source.packetNameFormat = "%M-%m-%c"
*.host1.app[0].source.displayStringTextFormat = "sent %p pk (%l)"
*.host1.app[0].source.packetLength = 14B
*.host1.app[0].source.productionInterval = 1ms
*.host1.app[0].display-name = "type1_2"
*.host1.app[0].io.destPort = 1000
*.host1.app[1].typename = "UdpBasicApp"
*.host1.app[1].destAddresses = "host3"
*.host1.app[1].source.packetNameFormat = "%M-%m-%c"
*.host1.app[1].source.displayStringTextFormat = "sent %p pk (%l)"
*.host1.app[1].messageLength = 22B
*.host1.app[1].sendInterval = 1ms
*.host1.app[1].startTime = 1ms
*.host1.app[1].stopTime = 6ms
*.host1.app[1].display-name = "type2_3"
*.host1.app[1].destPort = 1001
*.host1.app[2].typename = "UdpBasicApp"
*.host1.app[2].destAddresses = "host3"
*.host1.app[2].source.packetNameFormat = "%M-%m-%c"
*.host1.app[2].source.displayStringTextFormat = "sent %p pk (%l)"
*.host1.app[2].messageLength = 22B
*.host1.app[2].sendInterval = 1ms
*.host1.app[2].startTime = 8ms
*.host1.app[2].stopTime = 12ms
*.host1.app[2].display-name = "type2_3"
*.host1.app[2].destPort = 1001
*.host1.app[3].typename = "UdpBasicApp"
*.host1.app[3].destAddresses = "host3"
*.host1.app[3].source.packetNameFormat = "%M-%m-%c"
*.host1.app[3].source.displayStringTextFormat = "sent %p pk (%l)"
*.host1.app[3].messageLength = 22B
*.host1.app[3].sendInterval = 1ms
*.host1.app[3].startTime = 23ms
*.host1.app[3].stopTime = 66ms
*.host1.app[3].display-name = "type2_3"
*.host1.app[3].destPort = 1001
*.host1.app[4].typename = "UdpBasicApp"
*.host1.app[4].destAddresses = "host3"
*.host1.app[4].source.packetNameFormat = "%M-%m-%c"
*.host1.app[4].source.displayStringTextFormat = "sent %p pk (%l)"
*.host1.app[4].messageLength = 22B
*.host1.app[4].sendInterval = 1ms
*.host1.app[4].startTime = 85ms
*.host1.app[4].stopTime = 97ms
*.host1.app[4].display-name = "type2_3"
*.host1.app[4].destPort = 1001
*.host1.app[5].typename = "UdpBasicApp"
*.host1.app[5].destAddresses = "host5"
*.host1.app[5].source.packetNameFormat = "%M-%m-%c"
*.host1.app[5].source.displayStringTextFormat = "sent %p pk (%l)"
*.host1.app[5].messageLength = 19B
*.host1.app[5].sendInterval = 1ms
*.host1.app[5].startTime = 2ms
*.host1.app[5].stopTime = 8ms
*.host1.app[5].display-name = "type2_4"
*.host1.app[5].destPort = 1001
*.host1.app[6].typename = "UdpBasicApp"
*.host1.app[6].destAddresses = "host5"
*.host1.app[6].source.packetNameFormat = "%M-%m-%c"
*.host1.app[6].source.displayStringTextFormat = "sent %p pk (%l)"
*.host1.app[6].messageLength = 19B
*.host1.app[6].sendInterval = 1ms
*.host1.app[6].startTime = 16ms
*.host1.app[6].stopTime = 55ms
*.host1.app[6].display-name = "type2_4"
*.host1.app[6].destPort = 1001
*.host1.app[7].typename = "UdpBasicApp"
*.host1.app[7].destAddresses = "host5"
*.host1.app[7].source.packetNameFormat = "%M-%m-%c"
*.host1.app[7].source.displayStringTextFormat = "sent %p pk (%l)"
*.host1.app[7].messageLength = 19B
*.host1.app[7].sendInterval = 1ms
*.host1.app[7].startTime = 56ms
*.host1.app[7].stopTime = 80ms
*.host1.app[7].display-name = "type2_4"
*.host1.app[7].destPort = 1001
*.host1.app[8].typename = "UdpBasicApp"
*.host1.app[8].destAddresses = "host5"
*.host1.app[8].source.packetNameFormat = "%M-%m-%c"
*.host1.app[8].source.displayStringTextFormat = "sent %p pk (%l)"
*.host1.app[8].messageLength = 19B
*.host1.app[8].sendInterval = 1ms
*.host1.app[8].startTime = 98ms
*.host1.app[8].stopTime = 100ms
*.host1.app[8].display-name = "type2_4"
*.host1.app[8].destPort = 1001
*.host2.numApps = 8
*.host2.app[0].typename = "UdpBasicApp"
*.host2.app[0].destAddresses = "host7"
*.host2.app[0].source.packetNameFormat = "%M-%m-%c"
*.host2.app[0].source.displayStringTextFormat = "sent %p pk (%l)"
*.host2.app[0].messageLength = 22B
*.host2.app[0].sendInterval = 1ms
*.host2.app[0].startTime = 12ms
*.host2.app[0].stopTime = 15ms
*.host2.app[0].display-name = "type2_2"
*.host2.app[0].destPort = 1001
*.host2.app[1].typename = "UdpBasicApp"
*.host2.app[1].destAddresses = "host7"
*.host2.app[1].source.packetNameFormat = "%M-%m-%c"
*.host2.app[1].source.displayStringTextFormat = "sent %p pk (%l)"
*.host2.app[1].messageLength = 22B
*.host2.app[1].sendInterval = 1ms
*.host2.app[1].startTime = 22ms
*.host2.app[1].stopTime = 32ms
*.host2.app[1].display-name = "type2_2"
*.host2.app[1].destPort = 1001
*.host2.app[2].typename = "UdpBasicApp"
*.host2.app[2].destAddresses = "host7"
*.host2.app[2].source.packetNameFormat = "%M-%m-%c"
*.host2.app[2].source.displayStringTextFormat = "sent %p pk (%l)"
*.host2.app[2].messageLength = 22B
*.host2.app[2].sendInterval = 1ms
*.host2.app[2].startTime = 34ms
*.host2.app[2].stopTime = 36ms
*.host2.app[2].display-name = "type2_2"
*.host2.app[2].destPort = 1001
*.host2.app[3].typename = "UdpBasicApp"
*.host2.app[3].destAddresses = "host7"
*.host2.app[3].source.packetNameFormat = "%M-%m-%c"
*.host2.app[3].source.displayStringTextFormat = "sent %p pk (%l)"
*.host2.app[3].messageLength = 22B
*.host2.app[3].sendInterval = 1ms
*.host2.app[3].startTime = 39ms
*.host2.app[3].stopTime = 47ms
*.host2.app[3].display-name = "type2_2"
*.host2.app[3].destPort = 1001
*.host2.app[4].typename = "UdpBasicApp"
*.host2.app[4].destAddresses = "host7"
*.host2.app[4].source.packetNameFormat = "%M-%m-%c"
*.host2.app[4].source.displayStringTextFormat = "sent %p pk (%l)"
*.host2.app[4].messageLength = 22B
*.host2.app[4].sendInterval = 1ms
*.host2.app[4].startTime = 54ms
*.host2.app[4].stopTime = 62ms
*.host2.app[4].display-name = "type2_2"
*.host2.app[4].destPort = 1001
*.host2.app[5].typename = "UdpBasicApp"
*.host2.app[5].destAddresses = "host7"
*.host2.app[5].source.packetNameFormat = "%M-%m-%c"
*.host2.app[5].source.displayStringTextFormat = "sent %p pk (%l)"
*.host2.app[5].messageLength = 22B
*.host2.app[5].sendInterval = 1ms
*.host2.app[5].startTime = 65ms
*.host2.app[5].stopTime = 79ms
*.host2.app[5].display-name = "type2_2"
*.host2.app[5].destPort = 1001
*.host2.app[6].typename = "UdpBasicApp"
*.host2.app[6].destAddresses = "host7"
*.host2.app[6].source.packetNameFormat = "%M-%m-%c"
*.host2.app[6].source.displayStringTextFormat = "sent %p pk (%l)"
*.host2.app[6].messageLength = 22B
*.host2.app[6].sendInterval = 1ms
*.host2.app[6].startTime = 86ms
*.host2.app[6].stopTime = 90ms
*.host2.app[6].display-name = "type2_2"
*.host2.app[6].destPort = 1001
*.host2.app[7].typename = "UdpBasicApp"
*.host2.app[7].destAddresses = "host7"
*.host2.app[7].source.packetNameFormat = "%M-%m-%c"
*.host2.app[7].source.displayStringTextFormat = "sent %p pk (%l)"
*.host2.app[7].messageLength = 22B
*.host2.app[7].sendInterval = 1ms
*.host2.app[7].startTime = 91ms
*.host2.app[7].stopTime = 100ms
*.host2.app[7].display-name = "type2_2"
*.host2.app[7].destPort = 1001
*.host3.numApps = 3
*.host3.app[0].typename = "UdpSinkApp"
*.host3.app[0].io.localPort = 1000
*.host3.app[1].typename = "UdpSourceApp"
*.host3.app[1].io.destAddress = "host7"
*.host3.app[1].source.packetNameFormat = "%M-%m-%c"
*.host3.app[1].source.displayStringTextFormat = "sent %p pk (%l)"
*.host3.app[1].source.packetLength = 23B
*.host3.app[1].source.productionInterval = 1ms
*.host3.app[1].display-name = "type1_4"
*.host3.app[1].io.destPort = 1000
*.host3.app[2].typename = "UdpSinkApp"
*.host3.app[2].io.localPort = 1001
*.host4.numApps = 6
*.host4.app[0].typename = "UdpSinkApp"
*.host4.app[0].io.localPort = 1000
*.host4.app[1].typename = "UdpBasicApp"
*.host4.app[1].destAddresses = "host8"
*.host4.app[1].source.packetNameFormat = "%M-%m-%c"
*.host4.app[1].source.displayStringTextFormat = "sent %p pk (%l)"
*.host4.app[1].messageLength = 20B
*.host4.app[1].sendInterval = 1ms
*.host4.app[1].startTime = 21ms
*.host4.app[1].stopTime = 22ms
*.host4.app[1].display-name = "type2_0"
*.host4.app[1].destPort = 1000
*.host4.app[2].typename = "UdpBasicApp"
*.host4.app[2].destAddresses = "host8"
*.host4.app[2].source.packetNameFormat = "%M-%m-%c"
*.host4.app[2].source.displayStringTextFormat = "sent %p pk (%l)"
*.host4.app[2].messageLength = 20B
*.host4.app[2].sendInterval = 1ms
*.host4.app[2].startTime = 26ms
*.host4.app[2].stopTime = 40ms
*.host4.app[2].display-name = "type2_0"
*.host4.app[2].destPort = 1000
*.host4.app[3].typename = "UdpBasicApp"
*.host4.app[3].destAddresses = "host8"
*.host4.app[3].source.packetNameFormat = "%M-%m-%c"
*.host4.app[3].source.displayStringTextFormat = "sent %p pk (%l)"
*.host4.app[3].messageLength = 20B
*.host4.app[3].sendInterval = 1ms
*.host4.app[3].startTime = 51ms
*.host4.app[3].stopTime = 55ms
*.host4.app[3].display-name = "type2_0"
*.host4.app[3].destPort = 1000
*.host4.app[4].typename = "UdpBasicApp"
*.host4.app[4].destAddresses = "host8"
*.host4.app[4].source.packetNameFormat = "%M-%m-%c"
*.host4.app[4].source.displayStringTextFormat = "sent %p pk (%l)"
*.host4.app[4].messageLength = 20B
*.host4.app[4].sendInterval = 1ms
*.host4.app[4].startTime = 64ms
*.host4.app[4].stopTime = 75ms
*.host4.app[4].display-name = "type2_0"
*.host4.app[4].destPort = 1000
*.host4.app[5].typename = "UdpBasicApp"
*.host4.app[5].destAddresses = "host8"
*.host4.app[5].source.packetNameFormat = "%M-%m-%c"
*.host4.app[5].source.displayStringTextFormat = "sent %p pk (%l)"
*.host4.app[5].messageLength = 20B
*.host4.app[5].sendInterval = 1ms
*.host4.app[5].startTime = 98ms
*.host4.app[5].stopTime = 100ms
*.host4.app[5].display-name = "type2_0"
*.host4.app[5].destPort = 1000
*.host5.numApps = 2
*.host5.app[0].typename = "UdpSinkApp"
*.host5.app[0].io.localPort = 1000
*.host5.app[1].typename = "UdpSinkApp"
*.host5.app[1].io.localPort = 1001
*.host6.numApps = 2
*.host6.app[0].typename = "UdpSinkApp"
*.host6.app[0].io.localPort = 1000
*.host6.app[1].typename = "UdpSinkApp"
*.host6.app[1].io.localPort = 1001
*.host7.numApps = 6
*.host7.app[0].typename = "UdpSinkApp"
*.host7.app[0].io.localPort = 1000
*.host7.app[1].typename = "UdpBasicApp"
*.host7.app[1].destAddresses = "host6"
*.host7.app[1].source.packetNameFormat = "%M-%m-%c"
*.host7.app[1].source.displayStringTextFormat = "sent %p pk (%l)"
*.host7.app[1].messageLength = 16B
*.host7.app[1].sendInterval = 1ms
*.host7.app[1].startTime = 1ms
*.host7.app[1].stopTime = 8ms
*.host7.app[1].display-name = "type2_1"
*.host7.app[1].destPort = 1001
*.host7.app[2].typename = "UdpBasicApp"
*.host7.app[2].destAddresses = "host6"
*.host7.app[2].source.packetNameFormat = "%M-%m-%c"
*.host7.app[2].source.displayStringTextFormat = "sent %p pk (%l)"
*.host7.app[2].messageLength = 16B
*.host7.app[2].sendInterval = 1ms
*.host7.app[2].startTime = 31ms
*.host7.app[2].stopTime = 51ms
*.host7.app[2].display-name = "type2_1"
*.host7.app[2].destPort = 1001
*.host7.app[3].typename = "UdpBasicApp"
*.host7.app[3].destAddresses = "host6"
*.host7.app[3].source.packetNameFormat = "%M-%m-%c"
*.host7.app[3].source.displayStringTextFormat = "sent %p pk (%l)"
*.host7.app[3].messageLength = 16B
*.host7.app[3].sendInterval = 1ms
*.host7.app[3].startTime = 77ms
*.host7.app[3].stopTime = 81ms
*.host7.app[3].display-name = "type2_1"
*.host7.app[3].destPort = 1001
*.host7.app[4].typename = "UdpBasicApp"
*.host7.app[4].destAddresses = "host6"
*.host7.app[4].source.packetNameFormat = "%M-%m-%c"
*.host7.app[4].source.displayStringTextFormat = "sent %p pk (%l)"
*.host7.app[4].messageLength = 16B
*.host7.app[4].sendInterval = 1ms
*.host7.app[4].startTime = 85ms
*.host7.app[4].stopTime = 100ms
*.host7.app[4].display-name = "type2_1"
*.host7.app[4].destPort = 1001
*.host7.app[5].typename = "UdpSinkApp"
*.host7.app[5].io.localPort = 1001
*.host8.numApps = 2
*.host8.app[0].typename = "UdpSinkApp"
*.host8.app[0].io.localPort = 1000
*.host8.app[1].typename = "UdpSinkApp"
*.host8.app[1].io.localPort = 1001
*.host9.numApps = 3
*.host9.app[0].typename = "UdpSourceApp"
*.host9.app[0].io.destAddress = "host4"
*.host9.app[0].source.packetNameFormat = "%M-%m-%c"
*.host9.app[0].source.displayStringTextFormat = "sent %p pk (%l)"
*.host9.app[0].source.packetLength = 20B
*.host9.app[0].source.productionInterval = 1ms
*.host9.app[0].display-name = "type1_1"
*.host9.app[0].io.destPort = 1000
*.host9.app[1].typename = "UdpSourceApp"
*.host9.app[1].io.destAddress = "host5"
*.host9.app[1].source.packetNameFormat = "%M-%m-%c"
*.host9.app[1].source.displayStringTextFormat = "sent %p pk (%l)"
*.host9.app[1].source.packetLength = 21B
*.host9.app[1].source.productionInterval = 1ms
*.host9.app[1].display-name = "type1_3"
*.host9.app[1].io.destPort = 1000
*.host9.app[2].typename = "UdpSourceApp"
*.host9.app[2].io.destAddress = "host0"
*.host9.app[2].source.packetNameFormat = "%M-%m-%c"
*.host9.app[2].source.displayStringTextFormat = "sent %p pk (%l)"
*.host9.app[2].source.packetLength = 19B
*.host9.app[2].source.productionInterval = 1ms
*.host9.app[2].display-name = "type1_5"
*.host9.app[2].io.destPort = 1000
*.streamRedundancyConfigurator.configuration = [
	{
		name: "S1-0",
		packetFilter: "*-type1_0-*",
		source: "host0",
		destination: "host6",
		trees: [[["host0", "switch0", "switch8", "switch3", "switch9", "switch6", "host6"]]]
	},
	{
		name: "S1-1",
		packetFilter: "*-type1_1-*",
		source: "host9",
		destination: "host4",
		trees: [[["host9", "switch9", "switch5", "switch4", "host4"]]]
	},
	{
		name: "S1-2",
		packetFilter: "*-type1_2-*",
		source: "host1",
		destination: "host3",
		trees: [[["host1", "switch1", "switch9", "switch5", "switch4", "switch3", "host3"]]]
	},
	{
		name: "S1-3",
		packetFilter: "*-type1_3-*",
		source: "host9",
		destination: "host5",
		trees: [[["host9", "switch9", "switch5", "host5"]]]
	},
	{
		name: "S1-4",
		packetFilter: "*-type1_4-*",
		source: "host3",
		destination: "host7",
		trees: [[["host3", "switch3", "switch9", "switch5", "switch4", "switch7", "host7"]]]
	},
	{
		name: "S1-5",
		packetFilter: "*-type1_5-*",
		source: "host9",
		destination: "host0",
		trees: [[["host9", "switch9", "switch5", "switch0", "host0"]]]
	},
	{
		name: "S2-0",
		packetFilter: "*-type2_0-*",
		source: "host4",
		destination: "host8",
		trees: [[["host4", "switch4", "switch7", "switch5", "switch8", "host8"]]]
	},
	{
		name: "S2-1",
		packetFilter: "*-type2_1-*",
		source: "host7",
		destination: "host6",
		trees: [[["host7",
	 "switch7",
	 "switch5",
	 "switch8",
	 "switch2",
	 "switch9",
	 "switch6",
	 "host6"]]]
	},
	{
		name: "S2-2",
		packetFilter: "*-type2_2-*",
		source: "host2",
		destination: "host7",
		trees: [[["host2",
	 "switch2",
	 "switch9",
	 "switch6",
	 "switch1",
	 "switch3",
	 "switch4",
	 "switch7",
	 "host7"]]]
	},
	{
		name: "S2-3",
		packetFilter: "*-type2_3-*",
		source: "host1",
		destination: "host3",
		trees: [[["host1", "switch1", "switch3", "host3"]]]
	},
	{
		name: "S2-4",
		packetFilter: "*-type2_4-*",
		source: "host1",
		destination: "host5",
		trees: [[["host1", "switch1", "switch5", "host5"]]]
	},
	{
		name: "S2-5",
		packetFilter: "*-type2_5-*",
		source: "host0",
		destination: "host8",
		trees: [[["host0", "switch0", "switch2", "switch8", "host8"]]]
	}]
	

