[General]
network = TSN_multipath
sim-time-limit = 10ms
*.macForwardingTableConfigurator.typename = ""
*.*.hasStreamRedundancy = true
*.*.bridging.streamRelay.typename = "StreamRelayLayer"
*.*.bridging.streamCoder.typename = "StreamCoderLayer"
*.streamRedundancyConfigurator.typename = "StreamRedundancyConfigurator"
*.host0.eth[0].bitrate = 1000Mbps
*.switch0.eth[0].bitrate = 1000Mbps
*.switch0.eth[1].bitrate = 1300Mbps
*.switch0.eth[2].bitrate = 2200Mbps
*.switch0.eth[3].bitrate = 1700Mbps
*.switch0.eth[4].bitrate = 2200Mbps
*.switch0.eth[5].bitrate = 2300Mbps
*.switch0.eth[6].bitrate = 1200Mbps
*.switch0.eth[7].bitrate = 2100Mbps
*.switch0.eth[8].bitrate = 1500Mbps
*.switch0.eth[9].bitrate = 1900Mbps
*.switch0.eth[10].bitrate = 2000Mbps
*.host1.eth[0].bitrate = 1000Mbps
*.switch1.eth[0].bitrate = 1000Mbps
*.switch1.eth[1].bitrate = 2200Mbps
*.switch1.eth[2].bitrate = 1900Mbps
*.switch1.eth[3].bitrate = 2400Mbps
*.switch1.eth[4].bitrate = 1500Mbps
*.switch1.eth[5].bitrate = 1500Mbps
*.switch1.eth[6].bitrate = 1600Mbps
*.switch1.eth[7].bitrate = 2100Mbps
*.switch1.eth[8].bitrate = 2100Mbps
*.switch1.eth[9].bitrate = 1700Mbps
*.switch1.eth[10].bitrate = 2400Mbps
*.switch1.eth[11].bitrate = 1500Mbps
*.host2.eth[0].bitrate = 1000Mbps
*.switch2.eth[0].bitrate = 1000Mbps
*.switch2.eth[1].bitrate = 1900Mbps
*.switch2.eth[2].bitrate = 2300Mbps
*.switch2.eth[3].bitrate = 2100Mbps
*.switch2.eth[4].bitrate = 1700Mbps
*.switch2.eth[5].bitrate = 2100Mbps
*.switch2.eth[6].bitrate = 1200Mbps
*.switch2.eth[7].bitrate = 1900Mbps
*.switch2.eth[8].bitrate = 1500Mbps
*.switch2.eth[9].bitrate = 1900Mbps
*.switch2.eth[10].bitrate = 1400Mbps
*.switch2.eth[11].bitrate = 1600Mbps
*.switch2.eth[12].bitrate = 2200Mbps
*.switch2.eth[13].bitrate = 1400Mbps
*.host3.eth[0].bitrate = 1000Mbps
*.switch3.eth[0].bitrate = 1000Mbps
*.switch3.eth[1].bitrate = 1300Mbps
*.switch3.eth[2].bitrate = 2400Mbps
*.switch3.eth[3].bitrate = 2100Mbps
*.switch3.eth[4].bitrate = 1200Mbps
*.switch3.eth[5].bitrate = 1700Mbps
*.switch3.eth[6].bitrate = 1900Mbps
*.switch3.eth[7].bitrate = 1300Mbps
*.switch3.eth[8].bitrate = 1500Mbps
*.switch3.eth[9].bitrate = 1300Mbps
*.switch3.eth[10].bitrate = 2000Mbps
*.switch3.eth[11].bitrate = 1700Mbps
*.switch3.eth[12].bitrate = 1800Mbps
*.switch3.eth[13].bitrate = 2100Mbps
*.switch3.eth[14].bitrate = 1200Mbps
*.switch3.eth[15].bitrate = 1200Mbps
*.switch3.eth[16].bitrate = 1500Mbps
*.host4.eth[0].bitrate = 1000Mbps
*.switch4.eth[0].bitrate = 1000Mbps
*.switch4.eth[1].bitrate = 1500Mbps
*.switch4.eth[2].bitrate = 1700Mbps
*.switch4.eth[3].bitrate = 1300Mbps
*.switch4.eth[4].bitrate = 2100Mbps
*.switch4.eth[5].bitrate = 2400Mbps
*.switch4.eth[6].bitrate = 1400Mbps
*.switch4.eth[7].bitrate = 1800Mbps
*.switch4.eth[8].bitrate = 2200Mbps
*.switch4.eth[9].bitrate = 2300Mbps
*.switch4.eth[10].bitrate = 2400Mbps
*.switch4.eth[11].bitrate = 1300Mbps
*.host5.eth[0].bitrate = 1000Mbps
*.switch5.eth[0].bitrate = 1000Mbps
*.switch5.eth[1].bitrate = 2100Mbps
*.switch5.eth[2].bitrate = 2200Mbps
*.switch5.eth[3].bitrate = 2100Mbps
*.switch5.eth[4].bitrate = 1300Mbps
*.switch5.eth[5].bitrate = 2200Mbps
*.switch5.eth[6].bitrate = 1500Mbps
*.switch5.eth[7].bitrate = 2000Mbps
*.switch5.eth[8].bitrate = 2300Mbps
*.host6.eth[0].bitrate = 1000Mbps
*.switch6.eth[0].bitrate = 1000Mbps
*.switch6.eth[1].bitrate = 2200Mbps
*.switch6.eth[2].bitrate = 1500Mbps
*.switch6.eth[3].bitrate = 1200Mbps
*.switch6.eth[4].bitrate = 1500Mbps
*.switch6.eth[5].bitrate = 1500Mbps
*.switch6.eth[6].bitrate = 1600Mbps
*.switch6.eth[7].bitrate = 1200Mbps
*.switch6.eth[8].bitrate = 2100Mbps
*.switch6.eth[9].bitrate = 1500Mbps
*.switch6.eth[10].bitrate = 1400Mbps
*.switch6.eth[11].bitrate = 2000Mbps
*.host7.eth[0].bitrate = 1000Mbps
*.switch7.eth[0].bitrate = 1000Mbps
*.switch7.eth[1].bitrate = 1600Mbps
*.switch7.eth[2].bitrate = 1900Mbps
*.switch7.eth[3].bitrate = 1300Mbps
*.switch7.eth[4].bitrate = 2300Mbps
*.switch7.eth[5].bitrate = 2100Mbps
*.switch7.eth[6].bitrate = 1900Mbps
*.switch7.eth[7].bitrate = 1500Mbps
*.switch7.eth[8].bitrate = 2200Mbps
*.switch7.eth[9].bitrate = 1500Mbps
*.switch7.eth[10].bitrate = 2400Mbps
*.switch7.eth[11].bitrate = 1200Mbps
*.switch7.eth[12].bitrate = 1400Mbps
*.host8.eth[0].bitrate = 1000Mbps
*.switch8.eth[0].bitrate = 1000Mbps
*.switch8.eth[1].bitrate = 2100Mbps
*.switch8.eth[2].bitrate = 2000Mbps
*.switch8.eth[3].bitrate = 2400Mbps
*.switch8.eth[4].bitrate = 2200Mbps
*.switch8.eth[5].bitrate = 1500Mbps
*.switch8.eth[6].bitrate = 2400Mbps
*.switch8.eth[7].bitrate = 1400Mbps
*.switch8.eth[8].bitrate = 1200Mbps
*.switch8.eth[9].bitrate = 2000Mbps
*.switch8.eth[10].bitrate = 2000Mbps
*.switch8.eth[11].bitrate = 1400Mbps
*.switch8.eth[12].bitrate = 1500Mbps
*.host9.eth[0].bitrate = 1000Mbps
*.switch9.eth[0].bitrate = 1000Mbps
*.switch9.eth[1].bitrate = 1700Mbps
*.switch9.eth[2].bitrate = 2100Mbps
*.switch9.eth[3].bitrate = 1500Mbps
*.switch9.eth[4].bitrate = 1700Mbps
*.switch9.eth[5].bitrate = 1400Mbps
*.switch9.eth[6].bitrate = 1200Mbps
*.switch9.eth[7].bitrate = 2000Mbps
*.switch9.eth[8].bitrate = 1500Mbps
*.switch9.eth[9].bitrate = 2300Mbps
*.switch9.eth[10].bitrate = 1500Mbps
*.host0.numApps = 19
*.host0.app[0].typename = "UdpBasicApp"
*.host0.app[0].destAddresses = "host3"
*.host0.app[0].source.packetNameFormat = "%M-%m-%c"
*.host0.app[0].source.displayStringTextFormat = "sent %p pk (%l)"
*.host0.app[0].messageLength = 13B
*.host0.app[0].sendInterval = 1ms
*.host0.app[0].startTime = 1000us
*.host0.app[0].stopTime = 1100us
*.host0.app[0].display-name = "type2_1"
*.host0.app[0].destPort = 1000
*.host0.app[1].typename = "UdpBasicApp"
*.host0.app[1].destAddresses = "host3"
*.host0.app[1].source.packetNameFormat = "%M-%m-%c"
*.host0.app[1].source.displayStringTextFormat = "sent %p pk (%l)"
*.host0.app[1].messageLength = 13B
*.host0.app[1].sendInterval = 1ms
*.host0.app[1].startTime = 2500us
*.host0.app[1].stopTime = 4600us
*.host0.app[1].display-name = "type2_1"
*.host0.app[1].destPort = 1000
*.host0.app[2].typename = "UdpBasicApp"
*.host0.app[2].destAddresses = "host3"
*.host0.app[2].source.packetNameFormat = "%M-%m-%c"
*.host0.app[2].source.displayStringTextFormat = "sent %p pk (%l)"
*.host0.app[2].messageLength = 13B
*.host0.app[2].sendInterval = 1ms
*.host0.app[2].startTime = 6500us
*.host0.app[2].stopTime = 7400us
*.host0.app[2].display-name = "type2_1"
*.host0.app[2].destPort = 1000
*.host0.app[3].typename = "UdpBasicApp"
*.host0.app[3].destAddresses = "host3"
*.host0.app[3].source.packetNameFormat = "%M-%m-%c"
*.host0.app[3].source.displayStringTextFormat = "sent %p pk (%l)"
*.host0.app[3].messageLength = 13B
*.host0.app[3].sendInterval = 1ms
*.host0.app[3].startTime = 8100us
*.host0.app[3].stopTime = 9300us
*.host0.app[3].display-name = "type2_1"
*.host0.app[3].destPort = 1000
*.host0.app[4].typename = "UdpBasicApp"
*.host0.app[4].destAddresses = "host3"
*.host0.app[4].source.packetNameFormat = "%M-%m-%c"
*.host0.app[4].source.displayStringTextFormat = "sent %p pk (%l)"
*.host0.app[4].messageLength = 13B
*.host0.app[4].sendInterval = 1ms
*.host0.app[4].startTime = 9600us
*.host0.app[4].stopTime = 10000us
*.host0.app[4].display-name = "type2_1"
*.host0.app[4].destPort = 1000
*.host0.app[5].typename = "UdpBasicApp"
*.host0.app[5].destAddresses = "host5"
*.host0.app[5].source.packetNameFormat = "%M-%m-%c"
*.host0.app[5].source.displayStringTextFormat = "sent %p pk (%l)"
*.host0.app[5].messageLength = 15B
*.host0.app[5].sendInterval = 1ms
*.host0.app[5].startTime = 500us
*.host0.app[5].stopTime = 700us
*.host0.app[5].display-name = "type2_2"
*.host0.app[5].destPort = 1000
*.host0.app[6].typename = "UdpBasicApp"
*.host0.app[6].destAddresses = "host5"
*.host0.app[6].source.packetNameFormat = "%M-%m-%c"
*.host0.app[6].source.displayStringTextFormat = "sent %p pk (%l)"
*.host0.app[6].messageLength = 15B
*.host0.app[6].sendInterval = 1ms
*.host0.app[6].startTime = 2100us
*.host0.app[6].stopTime = 2200us
*.host0.app[6].display-name = "type2_2"
*.host0.app[6].destPort = 1000
*.host0.app[7].typename = "UdpBasicApp"
*.host0.app[7].destAddresses = "host5"
*.host0.app[7].source.packetNameFormat = "%M-%m-%c"
*.host0.app[7].source.displayStringTextFormat = "sent %p pk (%l)"
*.host0.app[7].messageLength = 15B
*.host0.app[7].sendInterval = 1ms
*.host0.app[7].startTime = 3200us
*.host0.app[7].stopTime = 3600us
*.host0.app[7].display-name = "type2_2"
*.host0.app[7].destPort = 1000
*.host0.app[8].typename = "UdpBasicApp"
*.host0.app[8].destAddresses = "host5"
*.host0.app[8].source.packetNameFormat = "%M-%m-%c"
*.host0.app[8].source.displayStringTextFormat = "sent %p pk (%l)"
*.host0.app[8].messageLength = 15B
*.host0.app[8].sendInterval = 1ms
*.host0.app[8].startTime = 4600us
*.host0.app[8].stopTime = 4900us
*.host0.app[8].display-name = "type2_2"
*.host0.app[8].destPort = 1000
*.host0.app[9].typename = "UdpBasicApp"
*.host0.app[9].destAddresses = "host5"
*.host0.app[9].source.packetNameFormat = "%M-%m-%c"
*.host0.app[9].source.displayStringTextFormat = "sent %p pk (%l)"
*.host0.app[9].messageLength = 15B
*.host0.app[9].sendInterval = 1ms
*.host0.app[9].startTime = 5400us
*.host0.app[9].stopTime = 6500us
*.host0.app[9].display-name = "type2_2"
*.host0.app[9].destPort = 1000
*.host0.app[10].typename = "UdpBasicApp"
*.host0.app[10].destAddresses = "host5"
*.host0.app[10].source.packetNameFormat = "%M-%m-%c"
*.host0.app[10].source.displayStringTextFormat = "sent %p pk (%l)"
*.host0.app[10].messageLength = 15B
*.host0.app[10].sendInterval = 1ms
*.host0.app[10].startTime = 7500us
*.host0.app[10].stopTime = 7600us
*.host0.app[10].display-name = "type2_2"
*.host0.app[10].destPort = 1000
*.host0.app[11].typename = "UdpBasicApp"
*.host0.app[11].destAddresses = "host5"
*.host0.app[11].source.packetNameFormat = "%M-%m-%c"
*.host0.app[11].source.displayStringTextFormat = "sent %p pk (%l)"
*.host0.app[11].messageLength = 15B
*.host0.app[11].sendInterval = 1ms
*.host0.app[11].startTime = 7900us
*.host0.app[11].stopTime = 10000us
*.host0.app[11].display-name = "type2_2"
*.host0.app[11].destPort = 1000
*.host0.app[12].typename = "UdpBasicApp"
*.host0.app[12].destAddresses = "host9"
*.host0.app[12].source.packetNameFormat = "%M-%m-%c"
*.host0.app[12].source.displayStringTextFormat = "sent %p pk (%l)"
*.host0.app[12].messageLength = 12B
*.host0.app[12].sendInterval = 1ms
*.host0.app[12].startTime = 600us
*.host0.app[12].stopTime = 1100us
*.host0.app[12].display-name = "type2_5"
*.host0.app[12].destPort = 1002
*.host0.app[13].typename = "UdpBasicApp"
*.host0.app[13].destAddresses = "host9"
*.host0.app[13].source.packetNameFormat = "%M-%m-%c"
*.host0.app[13].source.displayStringTextFormat = "sent %p pk (%l)"
*.host0.app[13].messageLength = 12B
*.host0.app[13].sendInterval = 1ms
*.host0.app[13].startTime = 1300us
*.host0.app[13].stopTime = 1800us
*.host0.app[13].display-name = "type2_5"
*.host0.app[13].destPort = 1002
*.host0.app[14].typename = "UdpBasicApp"
*.host0.app[14].destAddresses = "host9"
*.host0.app[14].source.packetNameFormat = "%M-%m-%c"
*.host0.app[14].source.displayStringTextFormat = "sent %p pk (%l)"
*.host0.app[14].messageLength = 12B
*.host0.app[14].sendInterval = 1ms
*.host0.app[14].startTime = 2000us
*.host0.app[14].stopTime = 2300us
*.host0.app[14].display-name = "type2_5"
*.host0.app[14].destPort = 1002
*.host0.app[15].typename = "UdpBasicApp"
*.host0.app[15].destAddresses = "host9"
*.host0.app[15].source.packetNameFormat = "%M-%m-%c"
*.host0.app[15].source.displayStringTextFormat = "sent %p pk (%l)"
*.host0.app[15].messageLength = 12B
*.host0.app[15].sendInterval = 1ms
*.host0.app[15].startTime = 2700us
*.host0.app[15].stopTime = 5900us
*.host0.app[15].display-name = "type2_5"
*.host0.app[15].destPort = 1002
*.host0.app[16].typename = "UdpBasicApp"
*.host0.app[16].destAddresses = "host9"
*.host0.app[16].source.packetNameFormat = "%M-%m-%c"
*.host0.app[16].source.displayStringTextFormat = "sent %p pk (%l)"
*.host0.app[16].messageLength = 12B
*.host0.app[16].sendInterval = 1ms
*.host0.app[16].startTime = 6000us
*.host0.app[16].stopTime = 7000us
*.host0.app[16].display-name = "type2_5"
*.host0.app[16].destPort = 1002
*.host0.app[17].typename = "UdpBasicApp"
*.host0.app[17].destAddresses = "host9"
*.host0.app[17].source.packetNameFormat = "%M-%m-%c"
*.host0.app[17].source.displayStringTextFormat = "sent %p pk (%l)"
*.host0.app[17].messageLength = 12B
*.host0.app[17].sendInterval = 1ms
*.host0.app[17].startTime = 8200us
*.host0.app[17].stopTime = 8300us
*.host0.app[17].display-name = "type2_5"
*.host0.app[17].destPort = 1002
*.host0.app[18].typename = "UdpBasicApp"
*.host0.app[18].destAddresses = "host9"
*.host0.app[18].source.packetNameFormat = "%M-%m-%c"
*.host0.app[18].source.displayStringTextFormat = "sent %p pk (%l)"
*.host0.app[18].messageLength = 12B
*.host0.app[18].sendInterval = 1ms
*.host0.app[18].startTime = 9600us
*.host0.app[18].stopTime = 10000us
*.host0.app[18].display-name = "type2_5"
*.host0.app[18].destPort = 1002
*.host1.numApps = 3
*.host1.app[0].typename = "UdpSinkApp"
*.host1.app[0].io.localPort = 1000
*.host1.app[1].typename = "UdpSinkApp"
*.host1.app[1].io.localPort = 1001
*.host1.app[2].typename = "UdpSinkApp"
*.host1.app[2].io.localPort = 1002
*.host2.numApps = 0
*.host3.numApps = 8
*.host3.app[0].typename = "UdpSourceApp"
*.host3.app[0].io.destAddress = "host7"
*.host3.app[0].source.packetNameFormat = "%M-%m-%c"
*.host3.app[0].source.displayStringTextFormat = "sent %p pk (%l)"
*.host3.app[0].source.packetLength = 21B
*.host3.app[0].source.productionInterval = 1ms
*.host3.app[0].display-name = "type1_1"
*.host3.app[0].io.destPort = 1000
*.host3.app[1].typename = "UdpSinkApp"
*.host3.app[1].io.localPort = 1000
*.host3.app[2].typename = "UdpBasicApp"
*.host3.app[2].destAddresses = "host9"
*.host3.app[2].source.packetNameFormat = "%M-%m-%c"
*.host3.app[2].source.displayStringTextFormat = "sent %p pk (%l)"
*.host3.app[2].messageLength = 14B
*.host3.app[2].sendInterval = 1ms
*.host3.app[2].startTime = 300us
*.host3.app[2].stopTime = 600us
*.host3.app[2].display-name = "type2_4"
*.host3.app[2].destPort = 1001
*.host3.app[3].typename = "UdpBasicApp"
*.host3.app[3].destAddresses = "host9"
*.host3.app[3].source.packetNameFormat = "%M-%m-%c"
*.host3.app[3].source.displayStringTextFormat = "sent %p pk (%l)"
*.host3.app[3].messageLength = 14B
*.host3.app[3].sendInterval = 1ms
*.host3.app[3].startTime = 1600us
*.host3.app[3].stopTime = 2000us
*.host3.app[3].display-name = "type2_4"
*.host3.app[3].destPort = 1001
*.host3.app[4].typename = "UdpBasicApp"
*.host3.app[4].destAddresses = "host9"
*.host3.app[4].source.packetNameFormat = "%M-%m-%c"
*.host3.app[4].source.displayStringTextFormat = "sent %p pk (%l)"
*.host3.app[4].messageLength = 14B
*.host3.app[4].sendInterval = 1ms
*.host3.app[4].startTime = 2200us
*.host3.app[4].stopTime = 4500us
*.host3.app[4].display-name = "type2_4"
*.host3.app[4].destPort = 1001
*.host3.app[5].typename = "UdpBasicApp"
*.host3.app[5].destAddresses = "host9"
*.host3.app[5].source.packetNameFormat = "%M-%m-%c"
*.host3.app[5].source.displayStringTextFormat = "sent %p pk (%l)"
*.host3.app[5].messageLength = 14B
*.host3.app[5].sendInterval = 1ms
*.host3.app[5].startTime = 6200us
*.host3.app[5].stopTime = 7500us
*.host3.app[5].display-name = "type2_4"
*.host3.app[5].destPort = 1001
*.host3.app[6].typename = "UdpBasicApp"
*.host3.app[6].destAddresses = "host9"
*.host3.app[6].source.packetNameFormat = "%M-%m-%c"
*.host3.app[6].source.displayStringTextFormat = "sent %p pk (%l)"
*.host3.app[6].messageLength = 14B
*.host3.app[6].sendInterval = 1ms
*.host3.app[6].startTime = 8600us
*.host3.app[6].stopTime = 9000us
*.host3.app[6].display-name = "type2_4"
*.host3.app[6].destPort = 1001
*.host3.app[7].typename = "UdpBasicApp"
*.host3.app[7].destAddresses = "host9"
*.host3.app[7].source.packetNameFormat = "%M-%m-%c"
*.host3.app[7].source.displayStringTextFormat = "sent %p pk (%l)"
*.host3.app[7].messageLength = 14B
*.host3.app[7].sendInterval = 1ms
*.host3.app[7].startTime = 9100us
*.host3.app[7].stopTime = 10000us
*.host3.app[7].display-name = "type2_4"
*.host3.app[7].destPort = 1001
*.host4.numApps = 2
*.host4.app[0].typename = "UdpSourceApp"
*.host4.app[0].io.destAddress = "host1"
*.host4.app[0].source.packetNameFormat = "%M-%m-%c"
*.host4.app[0].source.displayStringTextFormat = "sent %p pk (%l)"
*.host4.app[0].source.packetLength = 23B
*.host4.app[0].source.productionInterval = 1ms
*.host4.app[0].display-name = "type1_2"
*.host4.app[0].io.destPort = 1001
*.host4.app[1].typename = "UdpSourceApp"
*.host4.app[1].io.destAddress = "host6"
*.host4.app[1].source.packetNameFormat = "%M-%m-%c"
*.host4.app[1].source.displayStringTextFormat = "sent %p pk (%l)"
*.host4.app[1].source.packetLength = 18B
*.host4.app[1].source.productionInterval = 1ms
*.host4.app[1].display-name = "type1_4"
*.host4.app[1].io.destPort = 1000
*.host5.numApps = 2
*.host5.app[0].typename = "UdpSourceApp"
*.host5.app[0].io.destAddress = "host8"
*.host5.app[0].source.packetNameFormat = "%M-%m-%c"
*.host5.app[0].source.displayStringTextFormat = "sent %p pk (%l)"
*.host5.app[0].source.packetLength = 12B
*.host5.app[0].source.productionInterval = 1ms
*.host5.app[0].display-name = "type1_3"
*.host5.app[0].io.destPort = 1000
*.host5.app[1].typename = "UdpSinkApp"
*.host5.app[1].io.localPort = 1000
*.host6.numApps = 6
*.host6.app[0].typename = "UdpSourceApp"
*.host6.app[0].io.destAddress = "host1"
*.host6.app[0].source.packetNameFormat = "%M-%m-%c"
*.host6.app[0].source.displayStringTextFormat = "sent %p pk (%l)"
*.host6.app[0].source.packetLength = 12B
*.host6.app[0].source.productionInterval = 1ms
*.host6.app[0].display-name = "type1_0"
*.host6.app[0].io.destPort = 1000
*.host6.app[1].typename = "UdpSinkApp"
*.host6.app[1].io.localPort = 1000
*.host6.app[2].typename = "UdpBasicApp"
*.host6.app[2].destAddresses = "host9"
*.host6.app[2].source.packetNameFormat = "%M-%m-%c"
*.host6.app[2].source.displayStringTextFormat = "sent %p pk (%l)"
*.host6.app[2].messageLength = 15B
*.host6.app[2].sendInterval = 1ms
*.host6.app[2].startTime = 0us
*.host6.app[2].stopTime = 600us
*.host6.app[2].display-name = "type2_0"
*.host6.app[2].destPort = 1000
*.host6.app[3].typename = "UdpBasicApp"
*.host6.app[3].destAddresses = "host9"
*.host6.app[3].source.packetNameFormat = "%M-%m-%c"
*.host6.app[3].source.displayStringTextFormat = "sent %p pk (%l)"
*.host6.app[3].messageLength = 15B
*.host6.app[3].sendInterval = 1ms
*.host6.app[3].startTime = 2300us
*.host6.app[3].stopTime = 3400us
*.host6.app[3].display-name = "type2_0"
*.host6.app[3].destPort = 1000
*.host6.app[4].typename = "UdpBasicApp"
*.host6.app[4].destAddresses = "host9"
*.host6.app[4].source.packetNameFormat = "%M-%m-%c"
*.host6.app[4].source.displayStringTextFormat = "sent %p pk (%l)"
*.host6.app[4].messageLength = 15B
*.host6.app[4].sendInterval = 1ms
*.host6.app[4].startTime = 4100us
*.host6.app[4].stopTime = 4600us
*.host6.app[4].display-name = "type2_0"
*.host6.app[4].destPort = 1000
*.host6.app[5].typename = "UdpBasicApp"
*.host6.app[5].destAddresses = "host9"
*.host6.app[5].source.packetNameFormat = "%M-%m-%c"
*.host6.app[5].source.displayStringTextFormat = "sent %p pk (%l)"
*.host6.app[5].messageLength = 15B
*.host6.app[5].sendInterval = 1ms
*.host6.app[5].startTime = 5100us
*.host6.app[5].stopTime = 6200us
*.host6.app[5].display-name = "type2_0"
*.host6.app[5].destPort = 1000
*.host7.numApps = 2
*.host7.app[0].typename = "UdpSinkApp"
*.host7.app[0].io.localPort = 1000
*.host7.app[1].typename = "UdpSinkApp"
*.host7.app[1].io.localPort = 1001
*.host8.numApps = 1
*.host8.app[0].typename = "UdpSinkApp"
*.host8.app[0].io.localPort = 1000
*.host9.numApps = 10
*.host9.app[0].typename = "UdpSourceApp"
*.host9.app[0].io.destAddress = "host1"
*.host9.app[0].source.packetNameFormat = "%M-%m-%c"
*.host9.app[0].source.displayStringTextFormat = "sent %p pk (%l)"
*.host9.app[0].source.packetLength = 20B
*.host9.app[0].source.productionInterval = 1ms
*.host9.app[0].display-name = "type1_5"
*.host9.app[0].io.destPort = 1002
*.host9.app[1].typename = "UdpSinkApp"
*.host9.app[1].io.localPort = 1000
*.host9.app[2].typename = "UdpBasicApp"
*.host9.app[2].destAddresses = "host7"
*.host9.app[2].source.packetNameFormat = "%M-%m-%c"
*.host9.app[2].source.displayStringTextFormat = "sent %p pk (%l)"
*.host9.app[2].messageLength = 19B
*.host9.app[2].sendInterval = 1ms
*.host9.app[2].startTime = 0us
*.host9.app[2].stopTime = 100us
*.host9.app[2].display-name = "type2_3"
*.host9.app[2].destPort = 1001
*.host9.app[3].typename = "UdpBasicApp"
*.host9.app[3].destAddresses = "host7"
*.host9.app[3].source.packetNameFormat = "%M-%m-%c"
*.host9.app[3].source.displayStringTextFormat = "sent %p pk (%l)"
*.host9.app[3].messageLength = 19B
*.host9.app[3].sendInterval = 1ms
*.host9.app[3].startTime = 900us
*.host9.app[3].stopTime = 1600us
*.host9.app[3].display-name = "type2_3"
*.host9.app[3].destPort = 1001
*.host9.app[4].typename = "UdpBasicApp"
*.host9.app[4].destAddresses = "host7"
*.host9.app[4].source.packetNameFormat = "%M-%m-%c"
*.host9.app[4].source.displayStringTextFormat = "sent %p pk (%l)"
*.host9.app[4].messageLength = 19B
*.host9.app[4].sendInterval = 1ms
*.host9.app[4].startTime = 2100us
*.host9.app[4].stopTime = 2700us
*.host9.app[4].display-name = "type2_3"
*.host9.app[4].destPort = 1001
*.host9.app[5].typename = "UdpBasicApp"
*.host9.app[5].destAddresses = "host7"
*.host9.app[5].source.packetNameFormat = "%M-%m-%c"
*.host9.app[5].source.displayStringTextFormat = "sent %p pk (%l)"
*.host9.app[5].messageLength = 19B
*.host9.app[5].sendInterval = 1ms
*.host9.app[5].startTime = 3300us
*.host9.app[5].stopTime = 4800us
*.host9.app[5].display-name = "type2_3"
*.host9.app[5].destPort = 1001
*.host9.app[6].typename = "UdpBasicApp"
*.host9.app[6].destAddresses = "host7"
*.host9.app[6].source.packetNameFormat = "%M-%m-%c"
*.host9.app[6].source.displayStringTextFormat = "sent %p pk (%l)"
*.host9.app[6].messageLength = 19B
*.host9.app[6].sendInterval = 1ms
*.host9.app[6].startTime = 5200us
*.host9.app[6].stopTime = 5300us
*.host9.app[6].display-name = "type2_3"
*.host9.app[6].destPort = 1001
*.host9.app[7].typename = "UdpBasicApp"
*.host9.app[7].destAddresses = "host7"
*.host9.app[7].source.packetNameFormat = "%M-%m-%c"
*.host9.app[7].source.displayStringTextFormat = "sent %p pk (%l)"
*.host9.app[7].messageLength = 19B
*.host9.app[7].sendInterval = 1ms
*.host9.app[7].startTime = 6200us
*.host9.app[7].stopTime = 9700us
*.host9.app[7].display-name = "type2_3"
*.host9.app[7].destPort = 1001
*.host9.app[8].typename = "UdpSinkApp"
*.host9.app[8].io.localPort = 1001
*.host9.app[9].typename = "UdpSinkApp"
*.host9.app[9].io.localPort = 1002
*.streamRedundancyConfigurator.configuration = [
	{
		name: "S1-0",
		packetFilter: "*-type1_0-*",
		source: "host6",
		destination: "host1",
		trees: [[["host6", "switch6", "switch7", "switch2", "switch3", "switch1", "host1"]]]
	},
	{
		name: "S1-1",
		packetFilter: "*-type1_1-*",
		source: "host3",
		destination: "host7",
		trees: [[["host3", "switch3", "switch8", "switch6", "switch7", "host7"]]]
	},
	{
		name: "S1-2",
		packetFilter: "*-type1_2-*",
		source: "host4",
		destination: "host1",
		trees: [[["host4", "switch4", "switch1", "host1"]]]
	},
	{
		name: "S1-3",
		packetFilter: "*-type1_3-*",
		source: "host5",
		destination: "host8",
		trees: [[["host5", "switch5", "switch8", "host8"]]]
	},
	{
		name: "S1-4",
		packetFilter: "*-type1_4-*",
		source: "host4",
		destination: "host6",
		trees: [[["host4", "switch4", "switch1", "switch0", "switch6", "host6"]]]
	},
	{
		name: "S1-5",
		packetFilter: "*-type1_5-*",
		source: "host9",
		destination: "host1",
		trees: [[["host9", "switch9", "switch5", "switch3", "switch1", "host1"]]]
	},
	{
		name: "S2-0",
		packetFilter: "*-type2_0-*",
		source: "host6",
		destination: "host9",
		trees: [[["host6", "switch6", "switch7", "switch9", "host9"]]]
	},
	{
		name: "S2-1",
		packetFilter: "*-type2_1-*",
		source: "host0",
		destination: "host3",
		trees: [[["host0", "switch0", "switch3", "host3"]]]
	},
	{
		name: "S2-2",
		packetFilter: "*-type2_2-*",
		source: "host0",
		destination: "host5",
		trees: [[["host0",
	 "switch0",
	 "switch3",
	 "switch1",
	 "switch2",
	 "switch4",
	 "switch5",
	 "host5"]]]
	},
	{
		name: "S2-3",
		packetFilter: "*-type2_3-*",
		source: "host9",
		destination: "host7",
		trees: [[["host9",
	 "switch9",
	 "switch0",
	 "switch3",
	 "switch1",
	 "switch2",
	 "switch4",
	 "switch5",
	 "switch8",
	 "switch6",
	 "switch7",
	 "host7"]]]
	},
	{
		name: "S2-4",
		packetFilter: "*-type2_4-*",
		source: "host3",
		destination: "host9",
		trees: [[["host3",
	 "switch3",
	 "switch1",
	 "switch2",
	 "switch4",
	 "switch5",
	 "switch8",
	 "switch6",
	 "switch7",
	 "switch9",
	 "host9"]]]
	},
	{
		name: "S2-5",
		packetFilter: "*-type2_5-*",
		source: "host0",
		destination: "host9",
		trees: [[["host0",
	 "switch0",
	 "switch3",
	 "switch1",
	 "switch2",
	 "switch4",
	 "switch5",
	 "switch8",
	 "switch6",
	 "switch7",
	 "switch9",
	 "host9"]]]
	}]
	

