[General]
network = TSN_multipath
sim-time-limit = 100ms
*.macForwardingTableConfigurator.typename = ""
*.*.hasStreamRedundancy = true
*.*.bridging.streamRelay.typename = "StreamRelayLayer"
*.*.bridging.streamCoder.typename = "StreamCoderLayer"
*.streamRedundancyConfigurator.typename = "StreamRedundancyConfigurator"
*.host0.eth[0].bitrate = 1000Mbps
*.switch0.eth[0].bitrate = 1000Mbps
*.switch0.eth[1].bitrate = 1400Mbps
*.switch0.eth[2].bitrate = 1900Mbps
*.switch0.eth[3].bitrate = 1300Mbps
*.switch0.eth[4].bitrate = 1300Mbps
*.switch0.eth[5].bitrate = 2000Mbps
*.switch0.eth[6].bitrate = 1500Mbps
*.switch0.eth[7].bitrate = 1800Mbps
*.switch0.eth[8].bitrate = 2000Mbps
*.switch0.eth[9].bitrate = 1500Mbps
*.switch0.eth[10].bitrate = 1800Mbps
*.switch0.eth[11].bitrate = 2000Mbps
*.switch0.eth[12].bitrate = 1500Mbps
*.switch0.eth[13].bitrate = 1700Mbps
*.switch0.eth[14].bitrate = 1500Mbps
*.switch0.eth[15].bitrate = 1400Mbps
*.switch0.eth[16].bitrate = 1800Mbps
*.switch0.eth[17].bitrate = 1300Mbps
*.switch0.eth[18].bitrate = 2400Mbps
*.switch0.eth[19].bitrate = 2100Mbps
*.switch0.eth[20].bitrate = 2100Mbps
*.host1.eth[0].bitrate = 1000Mbps
*.switch1.eth[0].bitrate = 1000Mbps
*.switch1.eth[1].bitrate = 1400Mbps
*.switch1.eth[2].bitrate = 1700Mbps
*.switch1.eth[3].bitrate = 2200Mbps
*.switch1.eth[4].bitrate = 1500Mbps
*.switch1.eth[5].bitrate = 1500Mbps
*.switch1.eth[6].bitrate = 2200Mbps
*.switch1.eth[7].bitrate = 1300Mbps
*.switch1.eth[8].bitrate = 2400Mbps
*.switch1.eth[9].bitrate = 2200Mbps
*.switch1.eth[10].bitrate = 1700Mbps
*.switch1.eth[11].bitrate = 1700Mbps
*.switch1.eth[12].bitrate = 1300Mbps
*.switch1.eth[13].bitrate = 2000Mbps
*.switch1.eth[14].bitrate = 2200Mbps
*.switch1.eth[15].bitrate = 1400Mbps
*.switch1.eth[16].bitrate = 2200Mbps
*.switch1.eth[17].bitrate = 1800Mbps
*.switch1.eth[18].bitrate = 2000Mbps
*.switch1.eth[19].bitrate = 1400Mbps
*.switch1.eth[20].bitrate = 1800Mbps
*.switch1.eth[21].bitrate = 2100Mbps
*.switch1.eth[22].bitrate = 1500Mbps
*.host2.eth[0].bitrate = 1000Mbps
*.switch2.eth[0].bitrate = 1000Mbps
*.switch2.eth[1].bitrate = 1900Mbps
*.switch2.eth[2].bitrate = 2000Mbps
*.switch2.eth[3].bitrate = 1500Mbps
*.switch2.eth[4].bitrate = 2200Mbps
*.switch2.eth[5].bitrate = 1700Mbps
*.switch2.eth[6].bitrate = 2300Mbps
*.switch2.eth[7].bitrate = 1700Mbps
*.switch2.eth[8].bitrate = 2200Mbps
*.switch2.eth[9].bitrate = 1400Mbps
*.switch2.eth[10].bitrate = 1900Mbps
*.switch2.eth[11].bitrate = 2000Mbps
*.switch2.eth[12].bitrate = 1700Mbps
*.switch2.eth[13].bitrate = 2200Mbps
*.switch2.eth[14].bitrate = 1500Mbps
*.switch2.eth[15].bitrate = 1900Mbps
*.switch2.eth[16].bitrate = 2200Mbps
*.switch2.eth[17].bitrate = 1500Mbps
*.host3.eth[0].bitrate = 1000Mbps
*.switch3.eth[0].bitrate = 1000Mbps
*.switch3.eth[1].bitrate = 1300Mbps
*.switch3.eth[2].bitrate = 2200Mbps
*.switch3.eth[3].bitrate = 1500Mbps
*.switch3.eth[4].bitrate = 1500Mbps
*.switch3.eth[5].bitrate = 2200Mbps
*.switch3.eth[6].bitrate = 2200Mbps
*.switch3.eth[7].bitrate = 1500Mbps
*.switch3.eth[8].bitrate = 2400Mbps
*.switch3.eth[9].bitrate = 2000Mbps
*.switch3.eth[10].bitrate = 1800Mbps
*.switch3.eth[11].bitrate = 2300Mbps
*.switch3.eth[12].bitrate = 1300Mbps
*.switch3.eth[13].bitrate = 2100Mbps
*.switch3.eth[14].bitrate = 2400Mbps
*.switch3.eth[15].bitrate = 1300Mbps
*.host4.eth[0].bitrate = 1000Mbps
*.switch4.eth[0].bitrate = 1000Mbps
*.switch4.eth[1].bitrate = 1300Mbps
*.switch4.eth[2].bitrate = 1400Mbps
*.switch4.eth[3].bitrate = 2300Mbps
*.switch4.eth[4].bitrate = 1300Mbps
*.switch4.eth[5].bitrate = 1600Mbps
*.switch4.eth[6].bitrate = 2100Mbps
*.switch4.eth[7].bitrate = 2400Mbps
*.switch4.eth[8].bitrate = 1300Mbps
*.switch4.eth[9].bitrate = 1800Mbps
*.switch4.eth[10].bitrate = 1900Mbps
*.host5.eth[0].bitrate = 1000Mbps
*.switch5.eth[0].bitrate = 1000Mbps
*.switch5.eth[1].bitrate = 2000Mbps
*.switch5.eth[2].bitrate = 1500Mbps
*.switch5.eth[3].bitrate = 2200Mbps
*.switch5.eth[4].bitrate = 1400Mbps
*.switch5.eth[5].bitrate = 1500Mbps
*.switch5.eth[6].bitrate = 1300Mbps
*.switch5.eth[7].bitrate = 1600Mbps
*.switch5.eth[8].bitrate = 1300Mbps
*.switch5.eth[9].bitrate = 1400Mbps
*.switch5.eth[10].bitrate = 2400Mbps
*.switch5.eth[11].bitrate = 2100Mbps
*.switch5.eth[12].bitrate = 1300Mbps
*.switch5.eth[13].bitrate = 1800Mbps
*.switch5.eth[14].bitrate = 2300Mbps
*.switch5.eth[15].bitrate = 1600Mbps
*.switch5.eth[16].bitrate = 1200Mbps
*.switch5.eth[17].bitrate = 2100Mbps
*.switch5.eth[18].bitrate = 1800Mbps
*.switch5.eth[19].bitrate = 2300Mbps
*.switch5.eth[20].bitrate = 2200Mbps
*.switch5.eth[21].bitrate = 2200Mbps
*.host6.eth[0].bitrate = 1000Mbps
*.switch6.eth[0].bitrate = 1000Mbps
*.switch6.eth[1].bitrate = 1500Mbps
*.switch6.eth[2].bitrate = 1500Mbps
*.switch6.eth[3].bitrate = 1300Mbps
*.switch6.eth[4].bitrate = 1800Mbps
*.switch6.eth[5].bitrate = 2200Mbps
*.switch6.eth[6].bitrate = 1900Mbps
*.switch6.eth[7].bitrate = 2100Mbps
*.switch6.eth[8].bitrate = 1200Mbps
*.switch6.eth[9].bitrate = 1800Mbps
*.switch6.eth[10].bitrate = 2400Mbps
*.switch6.eth[11].bitrate = 1900Mbps
*.switch6.eth[12].bitrate = 1900Mbps
*.switch6.eth[13].bitrate = 2100Mbps
*.switch6.eth[14].bitrate = 1800Mbps
*.switch6.eth[15].bitrate = 1500Mbps
*.host7.eth[0].bitrate = 1000Mbps
*.switch7.eth[0].bitrate = 1000Mbps
*.switch7.eth[1].bitrate = 2200Mbps
*.switch7.eth[2].bitrate = 1700Mbps
*.switch7.eth[3].bitrate = 1500Mbps
*.switch7.eth[4].bitrate = 2300Mbps
*.switch7.eth[5].bitrate = 1400Mbps
*.switch7.eth[6].bitrate = 1800Mbps
*.switch7.eth[7].bitrate = 1800Mbps
*.switch7.eth[8].bitrate = 2100Mbps
*.switch7.eth[9].bitrate = 1900Mbps
*.switch7.eth[10].bitrate = 2000Mbps
*.switch7.eth[11].bitrate = 2300Mbps
*.switch7.eth[12].bitrate = 1900Mbps
*.switch7.eth[13].bitrate = 2400Mbps
*.host8.eth[0].bitrate = 1000Mbps
*.switch8.eth[0].bitrate = 1000Mbps
*.switch8.eth[1].bitrate = 1800Mbps
*.switch8.eth[2].bitrate = 1300Mbps
*.switch8.eth[3].bitrate = 2300Mbps
*.switch8.eth[4].bitrate = 2400Mbps
*.switch8.eth[5].bitrate = 2400Mbps
*.switch8.eth[6].bitrate = 2400Mbps
*.switch8.eth[7].bitrate = 1300Mbps
*.switch8.eth[8].bitrate = 2000Mbps
*.switch8.eth[9].bitrate = 2400Mbps
*.switch8.eth[10].bitrate = 2100Mbps
*.switch8.eth[11].bitrate = 1800Mbps
*.switch8.eth[12].bitrate = 2000Mbps
*.switch8.eth[13].bitrate = 1900Mbps
*.switch8.eth[14].bitrate = 1200Mbps
*.switch8.eth[15].bitrate = 1600Mbps
*.switch8.eth[16].bitrate = 2000Mbps
*.switch8.eth[17].bitrate = 1700Mbps
*.switch8.eth[18].bitrate = 1900Mbps
*.switch8.eth[19].bitrate = 1400Mbps
*.switch8.eth[20].bitrate = 1200Mbps
*.switch8.eth[21].bitrate = 2300Mbps
*.host9.eth[0].bitrate = 1000Mbps
*.switch9.eth[0].bitrate = 1000Mbps
*.switch9.eth[1].bitrate = 2000Mbps
*.switch9.eth[2].bitrate = 2400Mbps
*.switch9.eth[3].bitrate = 1700Mbps
*.switch9.eth[4].bitrate = 2000Mbps
*.switch9.eth[5].bitrate = 2100Mbps
*.switch9.eth[6].bitrate = 1900Mbps
*.switch9.eth[7].bitrate = 2100Mbps
*.switch9.eth[8].bitrate = 1900Mbps
*.switch9.eth[9].bitrate = 1400Mbps
*.switch9.eth[10].bitrate = 1400Mbps
*.switch9.eth[11].bitrate = 2400Mbps
*.switch9.eth[12].bitrate = 1300Mbps
*.host10.eth[0].bitrate = 1000Mbps
*.switch10.eth[0].bitrate = 1000Mbps
*.switch10.eth[1].bitrate = 1500Mbps
*.switch10.eth[2].bitrate = 2200Mbps
*.switch10.eth[3].bitrate = 1800Mbps
*.switch10.eth[4].bitrate = 1300Mbps
*.switch10.eth[5].bitrate = 1900Mbps
*.switch10.eth[6].bitrate = 1200Mbps
*.switch10.eth[7].bitrate = 2100Mbps
*.switch10.eth[8].bitrate = 1800Mbps
*.switch10.eth[9].bitrate = 1500Mbps
*.switch10.eth[10].bitrate = 2300Mbps
*.switch10.eth[11].bitrate = 1400Mbps
*.switch10.eth[12].bitrate = 1400Mbps
*.switch10.eth[13].bitrate = 2000Mbps
*.switch10.eth[14].bitrate = 2400Mbps
*.host11.eth[0].bitrate = 1000Mbps
*.switch11.eth[0].bitrate = 1000Mbps
*.switch11.eth[1].bitrate = 1800Mbps
*.switch11.eth[2].bitrate = 2200Mbps
*.switch11.eth[3].bitrate = 1400Mbps
*.switch11.eth[4].bitrate = 2300Mbps
*.switch11.eth[5].bitrate = 1800Mbps
*.switch11.eth[6].bitrate = 2100Mbps
*.switch11.eth[7].bitrate = 1600Mbps
*.switch11.eth[8].bitrate = 2400Mbps
*.switch11.eth[9].bitrate = 1900Mbps
*.switch11.eth[10].bitrate = 1400Mbps
*.switch11.eth[11].bitrate = 1400Mbps
*.switch11.eth[12].bitrate = 2000Mbps
*.switch11.eth[13].bitrate = 2400Mbps
*.switch11.eth[14].bitrate = 1500Mbps
*.switch11.eth[15].bitrate = 1600Mbps
*.host12.eth[0].bitrate = 1000Mbps
*.switch12.eth[0].bitrate = 1000Mbps
*.switch12.eth[1].bitrate = 1700Mbps
*.switch12.eth[2].bitrate = 1900Mbps
*.switch12.eth[3].bitrate = 1900Mbps
*.switch12.eth[4].bitrate = 2000Mbps
*.switch12.eth[5].bitrate = 2000Mbps
*.switch12.eth[6].bitrate = 2400Mbps
*.switch12.eth[7].bitrate = 1800Mbps
*.switch12.eth[8].bitrate = 2200Mbps
*.switch12.eth[9].bitrate = 1300Mbps
*.switch12.eth[10].bitrate = 2300Mbps
*.switch12.eth[11].bitrate = 2400Mbps
*.switch12.eth[12].bitrate = 1200Mbps
*.switch12.eth[13].bitrate = 2400Mbps
*.switch12.eth[14].bitrate = 2000Mbps
*.switch12.eth[15].bitrate = 2400Mbps
*.switch12.eth[16].bitrate = 2300Mbps
*.switch12.eth[17].bitrate = 1800Mbps
*.switch12.eth[18].bitrate = 2300Mbps
*.host13.eth[0].bitrate = 1000Mbps
*.switch13.eth[0].bitrate = 1000Mbps
*.switch13.eth[1].bitrate = 2000Mbps
*.switch13.eth[2].bitrate = 1700Mbps
*.switch13.eth[3].bitrate = 2000Mbps
*.switch13.eth[4].bitrate = 1300Mbps
*.switch13.eth[5].bitrate = 2300Mbps
*.switch13.eth[6].bitrate = 1700Mbps
*.switch13.eth[7].bitrate = 2300Mbps
*.switch13.eth[8].bitrate = 2100Mbps
*.switch13.eth[9].bitrate = 2100Mbps
*.switch13.eth[10].bitrate = 1300Mbps
*.switch13.eth[11].bitrate = 1800Mbps
*.switch13.eth[12].bitrate = 2200Mbps
*.switch13.eth[13].bitrate = 2300Mbps
*.switch13.eth[14].bitrate = 1300Mbps
*.switch13.eth[15].bitrate = 1500Mbps
*.switch13.eth[16].bitrate = 2300Mbps
*.switch13.eth[17].bitrate = 2100Mbps
*.host14.eth[0].bitrate = 1000Mbps
*.switch14.eth[0].bitrate = 1000Mbps
*.switch14.eth[1].bitrate = 1500Mbps
*.switch14.eth[2].bitrate = 1300Mbps
*.switch14.eth[3].bitrate = 1700Mbps
*.switch14.eth[4].bitrate = 1600Mbps
*.switch14.eth[5].bitrate = 1900Mbps
*.switch14.eth[6].bitrate = 1800Mbps
*.switch14.eth[7].bitrate = 2100Mbps
*.switch14.eth[8].bitrate = 2100Mbps
*.switch14.eth[9].bitrate = 1500Mbps
*.switch14.eth[10].bitrate = 1500Mbps
*.switch14.eth[11].bitrate = 1900Mbps
*.switch14.eth[12].bitrate = 2200Mbps
*.switch14.eth[13].bitrate = 2400Mbps
*.switch14.eth[14].bitrate = 1600Mbps
*.host0.numApps = 6
*.host0.app[0].typename = "UdpBasicApp"
*.host0.app[0].destAddresses = "host1"
*.host0.app[0].source.packetNameFormat = "%M-%m-%c"
*.host0.app[0].source.displayStringTextFormat = "sent %p pk (%l)"
*.host0.app[0].messageLength = 21B
*.host0.app[0].sendInterval = 1ms
*.host0.app[0].startTime = 14ms
*.host0.app[0].stopTime = 28ms
*.host0.app[0].display-name = "type2_9"
*.host0.app[0].destPort = 1001
*.host0.app[1].typename = "UdpBasicApp"
*.host0.app[1].destAddresses = "host1"
*.host0.app[1].source.packetNameFormat = "%M-%m-%c"
*.host0.app[1].source.displayStringTextFormat = "sent %p pk (%l)"
*.host0.app[1].messageLength = 21B
*.host0.app[1].sendInterval = 1ms
*.host0.app[1].startTime = 31ms
*.host0.app[1].stopTime = 47ms
*.host0.app[1].display-name = "type2_9"
*.host0.app[1].destPort = 1001
*.host0.app[2].typename = "UdpBasicApp"
*.host0.app[2].destAddresses = "host1"
*.host0.app[2].source.packetNameFormat = "%M-%m-%c"
*.host0.app[2].source.displayStringTextFormat = "sent %p pk (%l)"
*.host0.app[2].messageLength = 21B
*.host0.app[2].sendInterval = 1ms
*.host0.app[2].startTime = 50ms
*.host0.app[2].stopTime = 62ms
*.host0.app[2].display-name = "type2_9"
*.host0.app[2].destPort = 1001
*.host0.app[3].typename = "UdpBasicApp"
*.host0.app[3].destAddresses = "host1"
*.host0.app[3].source.packetNameFormat = "%M-%m-%c"
*.host0.app[3].source.displayStringTextFormat = "sent %p pk (%l)"
*.host0.app[3].messageLength = 21B
*.host0.app[3].sendInterval = 1ms
*.host0.app[3].startTime = 67ms
*.host0.app[3].stopTime = 73ms
*.host0.app[3].display-name = "type2_9"
*.host0.app[3].destPort = 1001
*.host0.app[4].typename = "UdpBasicApp"
*.host0.app[4].destAddresses = "host1"
*.host0.app[4].source.packetNameFormat = "%M-%m-%c"
*.host0.app[4].source.displayStringTextFormat = "sent %p pk (%l)"
*.host0.app[4].messageLength = 21B
*.host0.app[4].sendInterval = 1ms
*.host0.app[4].startTime = 78ms
*.host0.app[4].stopTime = 83ms
*.host0.app[4].display-name = "type2_9"
*.host0.app[4].destPort = 1001
*.host0.app[5].typename = "UdpBasicApp"
*.host0.app[5].destAddresses = "host1"
*.host0.app[5].source.packetNameFormat = "%M-%m-%c"
*.host0.app[5].source.displayStringTextFormat = "sent %p pk (%l)"
*.host0.app[5].messageLength = 21B
*.host0.app[5].sendInterval = 1ms
*.host0.app[5].startTime = 84ms
*.host0.app[5].stopTime = 97ms
*.host0.app[5].display-name = "type2_9"
*.host0.app[5].destPort = 1001
*.host1.numApps = 8
*.host1.app[0].typename = "UdpSinkApp"
*.host1.app[0].io.localPort = 1000
*.host1.app[1].typename = "UdpSinkApp"
*.host1.app[1].io.localPort = 1001
*.host1.app[2].typename = "UdpSinkApp"
*.host1.app[2].io.localPort = 1002
*.host1.app[3].typename = "UdpBasicApp"
*.host1.app[3].destAddresses = "host12"
*.host1.app[3].source.packetNameFormat = "%M-%m-%c"
*.host1.app[3].source.displayStringTextFormat = "sent %p pk (%l)"
*.host1.app[3].messageLength = 13B
*.host1.app[3].sendInterval = 1ms
*.host1.app[3].startTime = 9ms
*.host1.app[3].stopTime = 26ms
*.host1.app[3].display-name = "type2_13"
*.host1.app[3].destPort = 1001
*.host1.app[4].typename = "UdpBasicApp"
*.host1.app[4].destAddresses = "host12"
*.host1.app[4].source.packetNameFormat = "%M-%m-%c"
*.host1.app[4].source.displayStringTextFormat = "sent %p pk (%l)"
*.host1.app[4].messageLength = 13B
*.host1.app[4].sendInterval = 1ms
*.host1.app[4].startTime = 30ms
*.host1.app[4].stopTime = 35ms
*.host1.app[4].display-name = "type2_13"
*.host1.app[4].destPort = 1001
*.host1.app[5].typename = "UdpBasicApp"
*.host1.app[5].destAddresses = "host12"
*.host1.app[5].source.packetNameFormat = "%M-%m-%c"
*.host1.app[5].source.displayStringTextFormat = "sent %p pk (%l)"
*.host1.app[5].messageLength = 13B
*.host1.app[5].sendInterval = 1ms
*.host1.app[5].startTime = 48ms
*.host1.app[5].stopTime = 51ms
*.host1.app[5].display-name = "type2_13"
*.host1.app[5].destPort = 1001
*.host1.app[6].typename = "UdpBasicApp"
*.host1.app[6].destAddresses = "host12"
*.host1.app[6].source.packetNameFormat = "%M-%m-%c"
*.host1.app[6].source.displayStringTextFormat = "sent %p pk (%l)"
*.host1.app[6].messageLength = 13B
*.host1.app[6].sendInterval = 1ms
*.host1.app[6].startTime = 52ms
*.host1.app[6].stopTime = 70ms
*.host1.app[6].display-name = "type2_13"
*.host1.app[6].destPort = 1001
*.host1.app[7].typename = "UdpBasicApp"
*.host1.app[7].destAddresses = "host12"
*.host1.app[7].source.packetNameFormat = "%M-%m-%c"
*.host1.app[7].source.displayStringTextFormat = "sent %p pk (%l)"
*.host1.app[7].messageLength = 13B
*.host1.app[7].sendInterval = 1ms
*.host1.app[7].startTime = 99ms
*.host1.app[7].stopTime = 100ms
*.host1.app[7].display-name = "type2_13"
*.host1.app[7].destPort = 1001
*.host2.numApps = 7
*.host2.app[0].typename = "UdpSinkApp"
*.host2.app[0].io.localPort = 1000
*.host2.app[1].typename = "UdpBasicApp"
*.host2.app[1].destAddresses = "host5"
*.host2.app[1].source.packetNameFormat = "%M-%m-%c"
*.host2.app[1].source.displayStringTextFormat = "sent %p pk (%l)"
*.host2.app[1].messageLength = 20B
*.host2.app[1].sendInterval = 1ms
*.host2.app[1].startTime = 6ms
*.host2.app[1].stopTime = 21ms
*.host2.app[1].display-name = "type2_4"
*.host2.app[1].destPort = 1000
*.host2.app[2].typename = "UdpBasicApp"
*.host2.app[2].destAddresses = "host5"
*.host2.app[2].source.packetNameFormat = "%M-%m-%c"
*.host2.app[2].source.displayStringTextFormat = "sent %p pk (%l)"
*.host2.app[2].messageLength = 20B
*.host2.app[2].sendInterval = 1ms
*.host2.app[2].startTime = 22ms
*.host2.app[2].stopTime = 33ms
*.host2.app[2].display-name = "type2_4"
*.host2.app[2].destPort = 1000
*.host2.app[3].typename = "UdpBasicApp"
*.host2.app[3].destAddresses = "host5"
*.host2.app[3].source.packetNameFormat = "%M-%m-%c"
*.host2.app[3].source.displayStringTextFormat = "sent %p pk (%l)"
*.host2.app[3].messageLength = 20B
*.host2.app[3].sendInterval = 1ms
*.host2.app[3].startTime = 57ms
*.host2.app[3].stopTime = 72ms
*.host2.app[3].display-name = "type2_4"
*.host2.app[3].destPort = 1000
*.host2.app[4].typename = "UdpBasicApp"
*.host2.app[4].destAddresses = "host5"
*.host2.app[4].source.packetNameFormat = "%M-%m-%c"
*.host2.app[4].source.displayStringTextFormat = "sent %p pk (%l)"
*.host2.app[4].messageLength = 20B
*.host2.app[4].sendInterval = 1ms
*.host2.app[4].startTime = 76ms
*.host2.app[4].stopTime = 77ms
*.host2.app[4].display-name = "type2_4"
*.host2.app[4].destPort = 1000
*.host2.app[5].typename = "UdpBasicApp"
*.host2.app[5].destAddresses = "host5"
*.host2.app[5].source.packetNameFormat = "%M-%m-%c"
*.host2.app[5].source.displayStringTextFormat = "sent %p pk (%l)"
*.host2.app[5].messageLength = 20B
*.host2.app[5].sendInterval = 1ms
*.host2.app[5].startTime = 80ms
*.host2.app[5].stopTime = 82ms
*.host2.app[5].display-name = "type2_4"
*.host2.app[5].destPort = 1000
*.host2.app[6].typename = "UdpBasicApp"
*.host2.app[6].destAddresses = "host5"
*.host2.app[6].source.packetNameFormat = "%M-%m-%c"
*.host2.app[6].source.displayStringTextFormat = "sent %p pk (%l)"
*.host2.app[6].messageLength = 20B
*.host2.app[6].sendInterval = 1ms
*.host2.app[6].startTime = 88ms
*.host2.app[6].stopTime = 90ms
*.host2.app[6].display-name = "type2_4"
*.host2.app[6].destPort = 1000
*.host3.numApps = 7
*.host3.app[0].typename = "UdpBasicApp"
*.host3.app[0].destAddresses = "host6"
*.host3.app[0].source.packetNameFormat = "%M-%m-%c"
*.host3.app[0].source.displayStringTextFormat = "sent %p pk (%l)"
*.host3.app[0].messageLength = 12B
*.host3.app[0].sendInterval = 1ms
*.host3.app[0].startTime = 4ms
*.host3.app[0].stopTime = 6ms
*.host3.app[0].display-name = "type2_0"
*.host3.app[0].destPort = 1001
*.host3.app[1].typename = "UdpBasicApp"
*.host3.app[1].destAddresses = "host6"
*.host3.app[1].source.packetNameFormat = "%M-%m-%c"
*.host3.app[1].source.displayStringTextFormat = "sent %p pk (%l)"
*.host3.app[1].messageLength = 12B
*.host3.app[1].sendInterval = 1ms
*.host3.app[1].startTime = 9ms
*.host3.app[1].stopTime = 20ms
*.host3.app[1].display-name = "type2_0"
*.host3.app[1].destPort = 1001
*.host3.app[2].typename = "UdpBasicApp"
*.host3.app[2].destAddresses = "host6"
*.host3.app[2].source.packetNameFormat = "%M-%m-%c"
*.host3.app[2].source.displayStringTextFormat = "sent %p pk (%l)"
*.host3.app[2].messageLength = 12B
*.host3.app[2].sendInterval = 1ms
*.host3.app[2].startTime = 28ms
*.host3.app[2].stopTime = 31ms
*.host3.app[2].display-name = "type2_0"
*.host3.app[2].destPort = 1001
*.host3.app[3].typename = "UdpBasicApp"
*.host3.app[3].destAddresses = "host6"
*.host3.app[3].source.packetNameFormat = "%M-%m-%c"
*.host3.app[3].source.displayStringTextFormat = "sent %p pk (%l)"
*.host3.app[3].messageLength = 12B
*.host3.app[3].sendInterval = 1ms
*.host3.app[3].startTime = 35ms
*.host3.app[3].stopTime = 41ms
*.host3.app[3].display-name = "type2_0"
*.host3.app[3].destPort = 1001
*.host3.app[4].typename = "UdpBasicApp"
*.host3.app[4].destAddresses = "host6"
*.host3.app[4].source.packetNameFormat = "%M-%m-%c"
*.host3.app[4].source.displayStringTextFormat = "sent %p pk (%l)"
*.host3.app[4].messageLength = 12B
*.host3.app[4].sendInterval = 1ms
*.host3.app[4].startTime = 44ms
*.host3.app[4].stopTime = 48ms
*.host3.app[4].display-name = "type2_0"
*.host3.app[4].destPort = 1001
*.host3.app[5].typename = "UdpBasicApp"
*.host3.app[5].destAddresses = "host6"
*.host3.app[5].source.packetNameFormat = "%M-%m-%c"
*.host3.app[5].source.displayStringTextFormat = "sent %p pk (%l)"
*.host3.app[5].messageLength = 12B
*.host3.app[5].sendInterval = 1ms
*.host3.app[5].startTime = 51ms
*.host3.app[5].stopTime = 54ms
*.host3.app[5].display-name = "type2_0"
*.host3.app[5].destPort = 1001
*.host3.app[6].typename = "UdpBasicApp"
*.host3.app[6].destAddresses = "host6"
*.host3.app[6].source.packetNameFormat = "%M-%m-%c"
*.host3.app[6].source.displayStringTextFormat = "sent %p pk (%l)"
*.host3.app[6].messageLength = 12B
*.host3.app[6].sendInterval = 1ms
*.host3.app[6].startTime = 79ms
*.host3.app[6].stopTime = 91ms
*.host3.app[6].display-name = "type2_0"
*.host3.app[6].destPort = 1001
*.host4.numApps = 5
*.host4.app[0].typename = "UdpSinkApp"
*.host4.app[0].io.localPort = 1000
*.host4.app[1].typename = "UdpBasicApp"
*.host4.app[1].destAddresses = "host1"
*.host4.app[1].source.packetNameFormat = "%M-%m-%c"
*.host4.app[1].source.displayStringTextFormat = "sent %p pk (%l)"
*.host4.app[1].messageLength = 18B
*.host4.app[1].sendInterval = 1ms
*.host4.app[1].startTime = 6ms
*.host4.app[1].stopTime = 13ms
*.host4.app[1].display-name = "type2_5"
*.host4.app[1].destPort = 1000
*.host4.app[2].typename = "UdpBasicApp"
*.host4.app[2].destAddresses = "host1"
*.host4.app[2].source.packetNameFormat = "%M-%m-%c"
*.host4.app[2].source.displayStringTextFormat = "sent %p pk (%l)"
*.host4.app[2].messageLength = 18B
*.host4.app[2].sendInterval = 1ms
*.host4.app[2].startTime = 30ms
*.host4.app[2].stopTime = 32ms
*.host4.app[2].display-name = "type2_5"
*.host4.app[2].destPort = 1000
*.host4.app[3].typename = "UdpBasicApp"
*.host4.app[3].destAddresses = "host1"
*.host4.app[3].source.packetNameFormat = "%M-%m-%c"
*.host4.app[3].source.displayStringTextFormat = "sent %p pk (%l)"
*.host4.app[3].messageLength = 18B
*.host4.app[3].sendInterval = 1ms
*.host4.app[3].startTime = 45ms
*.host4.app[3].stopTime = 49ms
*.host4.app[3].display-name = "type2_5"
*.host4.app[3].destPort = 1000
*.host4.app[4].typename = "UdpBasicApp"
*.host4.app[4].destAddresses = "host1"
*.host4.app[4].source.packetNameFormat = "%M-%m-%c"
*.host4.app[4].source.displayStringTextFormat = "sent %p pk (%l)"
*.host4.app[4].messageLength = 18B
*.host4.app[4].sendInterval = 1ms
*.host4.app[4].startTime = 63ms
*.host4.app[4].stopTime = 92ms
*.host4.app[4].display-name = "type2_5"
*.host4.app[4].destPort = 1000
*.host5.numApps = 9
*.host5.app[0].typename = "UdpSourceApp"
*.host5.app[0].io.destAddress = "host6"
*.host5.app[0].source.packetNameFormat = "%M-%m-%c"
*.host5.app[0].source.displayStringTextFormat = "sent %p pk (%l)"
*.host5.app[0].source.packetLength = 14B
*.host5.app[0].source.productionInterval = 1ms
*.host5.app[0].display-name = "type1_1"
*.host5.app[0].io.destPort = 1000
*.host5.app[1].typename = "UdpSourceApp"
*.host5.app[1].io.destAddress = "host10"
*.host5.app[1].source.packetNameFormat = "%M-%m-%c"
*.host5.app[1].source.displayStringTextFormat = "sent %p pk (%l)"
*.host5.app[1].source.packetLength = 23B
*.host5.app[1].source.productionInterval = 1ms
*.host5.app[1].display-name = "type1_3"
*.host5.app[1].io.destPort = 1000
*.host5.app[2].typename = "UdpSinkApp"
*.host5.app[2].io.localPort = 1000
*.host5.app[3].typename = "UdpBasicApp"
*.host5.app[3].destAddresses = "host1"
*.host5.app[3].source.packetNameFormat = "%M-%m-%c"
*.host5.app[3].source.displayStringTextFormat = "sent %p pk (%l)"
*.host5.app[3].messageLength = 18B
*.host5.app[3].sendInterval = 1ms
*.host5.app[3].startTime = 0ms
*.host5.app[3].stopTime = 1ms
*.host5.app[3].display-name = "type2_12"
*.host5.app[3].destPort = 1002
*.host5.app[4].typename = "UdpBasicApp"
*.host5.app[4].destAddresses = "host1"
*.host5.app[4].source.packetNameFormat = "%M-%m-%c"
*.host5.app[4].source.displayStringTextFormat = "sent %p pk (%l)"
*.host5.app[4].messageLength = 18B
*.host5.app[4].sendInterval = 1ms
*.host5.app[4].startTime = 21ms
*.host5.app[4].stopTime = 28ms
*.host5.app[4].display-name = "type2_12"
*.host5.app[4].destPort = 1002
*.host5.app[5].typename = "UdpBasicApp"
*.host5.app[5].destAddresses = "host1"
*.host5.app[5].source.packetNameFormat = "%M-%m-%c"
*.host5.app[5].source.displayStringTextFormat = "sent %p pk (%l)"
*.host5.app[5].messageLength = 18B
*.host5.app[5].sendInterval = 1ms
*.host5.app[5].startTime = 31ms
*.host5.app[5].stopTime = 32ms
*.host5.app[5].display-name = "type2_12"
*.host5.app[5].destPort = 1002
*.host5.app[6].typename = "UdpBasicApp"
*.host5.app[6].destAddresses = "host1"
*.host5.app[6].source.packetNameFormat = "%M-%m-%c"
*.host5.app[6].source.displayStringTextFormat = "sent %p pk (%l)"
*.host5.app[6].messageLength = 18B
*.host5.app[6].sendInterval = 1ms
*.host5.app[6].startTime = 33ms
*.host5.app[6].stopTime = 53ms
*.host5.app[6].display-name = "type2_12"
*.host5.app[6].destPort = 1002
*.host5.app[7].typename = "UdpBasicApp"
*.host5.app[7].destAddresses = "host1"
*.host5.app[7].source.packetNameFormat = "%M-%m-%c"
*.host5.app[7].source.displayStringTextFormat = "sent %p pk (%l)"
*.host5.app[7].messageLength = 18B
*.host5.app[7].sendInterval = 1ms
*.host5.app[7].startTime = 58ms
*.host5.app[7].stopTime = 66ms
*.host5.app[7].display-name = "type2_12"
*.host5.app[7].destPort = 1002
*.host5.app[8].typename = "UdpBasicApp"
*.host5.app[8].destAddresses = "host1"
*.host5.app[8].source.packetNameFormat = "%M-%m-%c"
*.host5.app[8].source.displayStringTextFormat = "sent %p pk (%l)"
*.host5.app[8].messageLength = 18B
*.host5.app[8].sendInterval = 1ms
*.host5.app[8].startTime = 73ms
*.host5.app[8].stopTime = 80ms
*.host5.app[8].display-name = "type2_12"
*.host5.app[8].destPort = 1002
*.host6.numApps = 9
*.host6.app[0].typename = "UdpSinkApp"
*.host6.app[0].io.localPort = 1000
*.host6.app[1].typename = "UdpSinkApp"
*.host6.app[1].io.localPort = 1001
*.host6.app[2].typename = "UdpBasicApp"
*.host6.app[2].destAddresses = "host14"
*.host6.app[2].source.packetNameFormat = "%M-%m-%c"
*.host6.app[2].source.displayStringTextFormat = "sent %p pk (%l)"
*.host6.app[2].messageLength = 13B
*.host6.app[2].sendInterval = 1ms
*.host6.app[2].startTime = 5ms
*.host6.app[2].stopTime = 11ms
*.host6.app[2].display-name = "type2_6"
*.host6.app[2].destPort = 1001
*.host6.app[3].typename = "UdpBasicApp"
*.host6.app[3].destAddresses = "host14"
*.host6.app[3].source.packetNameFormat = "%M-%m-%c"
*.host6.app[3].source.displayStringTextFormat = "sent %p pk (%l)"
*.host6.app[3].messageLength = 13B
*.host6.app[3].sendInterval = 1ms
*.host6.app[3].startTime = 37ms
*.host6.app[3].stopTime = 44ms
*.host6.app[3].display-name = "type2_6"
*.host6.app[3].destPort = 1001
*.host6.app[4].typename = "UdpBasicApp"
*.host6.app[4].destAddresses = "host14"
*.host6.app[4].source.packetNameFormat = "%M-%m-%c"
*.host6.app[4].source.displayStringTextFormat = "sent %p pk (%l)"
*.host6.app[4].messageLength = 13B
*.host6.app[4].sendInterval = 1ms
*.host6.app[4].startTime = 55ms
*.host6.app[4].stopTime = 68ms
*.host6.app[4].display-name = "type2_6"
*.host6.app[4].destPort = 1001
*.host6.app[5].typename = "UdpBasicApp"
*.host6.app[5].destAddresses = "host14"
*.host6.app[5].source.packetNameFormat = "%M-%m-%c"
*.host6.app[5].source.displayStringTextFormat = "sent %p pk (%l)"
*.host6.app[5].messageLength = 13B
*.host6.app[5].sendInterval = 1ms
*.host6.app[5].startTime = 72ms
*.host6.app[5].stopTime = 73ms
*.host6.app[5].display-name = "type2_6"
*.host6.app[5].destPort = 1001
*.host6.app[6].typename = "UdpBasicApp"
*.host6.app[6].destAddresses = "host14"
*.host6.app[6].source.packetNameFormat = "%M-%m-%c"
*.host6.app[6].source.displayStringTextFormat = "sent %p pk (%l)"
*.host6.app[6].messageLength = 13B
*.host6.app[6].sendInterval = 1ms
*.host6.app[6].startTime = 80ms
*.host6.app[6].stopTime = 83ms
*.host6.app[6].display-name = "type2_6"
*.host6.app[6].destPort = 1001
*.host6.app[7].typename = "UdpBasicApp"
*.host6.app[7].destAddresses = "host14"
*.host6.app[7].source.packetNameFormat = "%M-%m-%c"
*.host6.app[7].source.displayStringTextFormat = "sent %p pk (%l)"
*.host6.app[7].messageLength = 13B
*.host6.app[7].sendInterval = 1ms
*.host6.app[7].startTime = 89ms
*.host6.app[7].stopTime = 90ms
*.host6.app[7].display-name = "type2_6"
*.host6.app[7].destPort = 1001
*.host6.app[8].typename = "UdpBasicApp"
*.host6.app[8].destAddresses = "host14"
*.host6.app[8].source.packetNameFormat = "%M-%m-%c"
*.host6.app[8].source.displayStringTextFormat = "sent %p pk (%l)"
*.host6.app[8].messageLength = 13B
*.host6.app[8].sendInterval = 1ms
*.host6.app[8].startTime = 97ms
*.host6.app[8].stopTime = 100ms
*.host6.app[8].display-name = "type2_6"
*.host6.app[8].destPort = 1001
*.host7.numApps = 0
*.host8.numApps = 8
*.host8.app[0].typename = "UdpSourceApp"
*.host8.app[0].io.destAddress = "host14"
*.host8.app[0].source.packetNameFormat = "%M-%m-%c"
*.host8.app[0].source.displayStringTextFormat = "sent %p pk (%l)"
*.host8.app[0].source.packetLength = 17B
*.host8.app[0].source.productionInterval = 1ms
*.host8.app[0].display-name = "type1_4"
*.host8.app[0].io.destPort = 1000
*.host8.app[1].typename = "UdpBasicApp"
*.host8.app[1].destAddresses = "host10"
*.host8.app[1].source.packetNameFormat = "%M-%m-%c"
*.host8.app[1].source.displayStringTextFormat = "sent %p pk (%l)"
*.host8.app[1].messageLength = 13B
*.host8.app[1].sendInterval = 1ms
*.host8.app[1].startTime = 4ms
*.host8.app[1].stopTime = 7ms
*.host8.app[1].display-name = "type2_2"
*.host8.app[1].destPort = 1001
*.host8.app[2].typename = "UdpBasicApp"
*.host8.app[2].destAddresses = "host10"
*.host8.app[2].source.packetNameFormat = "%M-%m-%c"
*.host8.app[2].source.displayStringTextFormat = "sent %p pk (%l)"
*.host8.app[2].messageLength = 13B
*.host8.app[2].sendInterval = 1ms
*.host8.app[2].startTime = 29ms
*.host8.app[2].stopTime = 31ms
*.host8.app[2].display-name = "type2_2"
*.host8.app[2].destPort = 1001
*.host8.app[3].typename = "UdpBasicApp"
*.host8.app[3].destAddresses = "host10"
*.host8.app[3].source.packetNameFormat = "%M-%m-%c"
*.host8.app[3].source.displayStringTextFormat = "sent %p pk (%l)"
*.host8.app[3].messageLength = 13B
*.host8.app[3].sendInterval = 1ms
*.host8.app[3].startTime = 42ms
*.host8.app[3].stopTime = 45ms
*.host8.app[3].display-name = "type2_2"
*.host8.app[3].destPort = 1001
*.host8.app[4].typename = "UdpBasicApp"
*.host8.app[4].destAddresses = "host10"
*.host8.app[4].source.packetNameFormat = "%M-%m-%c"