[General]
network = TSN_multipath
sim-time-limit = 100ms
*.macForwardingTableConfigurator.typename = ""
*.*.hasStreamRedundancy = true
*.*.bridging.streamRelay.typename = "StreamRelayLayer"
*.*.bridging.streamCoder.typename = "StreamCoderLayer"
*.streamRedundancyConfigurator.typename = "StreamRedundancyConfigurator"
*.host0.eth[0].bitrate = 1000Mbps
*.switch0.eth[0].bitrate = 1000Mbps
*.switch0.eth[1].bitrate = 1300Mbps
*.switch0.eth[2].bitrate = 1900Mbps
*.switch0.eth[3].bitrate = 2100Mbps
*.switch0.eth[4].bitrate = 1900Mbps
*.host1.eth[0].bitrate = 1000Mbps
*.switch1.eth[0].bitrate = 1000Mbps
*.switch1.eth[1].bitrate = 1300Mbps
*.switch1.eth[2].bitrate = 2100Mbps
*.switch1.eth[3].bitrate = 1900Mbps
*.switch1.eth[4].bitrate = 2200Mbps
*.host2.eth[0].bitrate = 1000Mbps
*.switch2.eth[0].bitrate = 1000Mbps
*.switch2.eth[1].bitrate = 1900Mbps
*.switch2.eth[2].bitrate = 1900Mbps
*.switch2.eth[3].bitrate = 1800Mbps
*.switch2.eth[4].bitrate = 1200Mbps
*.switch2.eth[5].bitrate = 1400Mbps
*.host3.eth[0].bitrate = 1000Mbps
*.switch3.eth[0].bitrate = 1000Mbps
*.switch3.eth[1].bitrate = 2200Mbps
*.switch3.eth[2].bitrate = 1800Mbps
*.switch3.eth[3].bitrate = 1900Mbps
*.switch3.eth[4].bitrate = 1200Mbps
*.switch3.eth[5].bitrate = 2000Mbps
*.switch3.eth[6].bitrate = 2000Mbps
*.host4.eth[0].bitrate = 1000Mbps
*.switch4.eth[0].bitrate = 1000Mbps
*.switch4.eth[1].bitrate = 2000Mbps
*.switch4.eth[2].bitrate = 1400Mbps
*.switch4.eth[3].bitrate = 2000Mbps
*.host0.numApps = 8
*.host0.app[0].typename = "UdpSinkApp"
*.host0.app[0].io.localPort = 1000
*.host0.app[1].typename = "UdpSinkApp"
*.host0.app[1].io.localPort = 1001
*.host0.app[2].typename = "UdpBasicApp"
*.host0.app[2].destAddresses = "host2"
*.host0.app[2].source.packetNameFormat = "%M-%m-%c"
*.host0.app[2].source.displayStringTextFormat = "sent %p pk (%l)"
*.host0.app[2].messageLength = 13B
*.host0.app[2].sendInterval = 1ms
*.host0.app[2].startTime = 11ms
*.host0.app[2].stopTime = 29ms
*.host0.app[2].display-name = "type2_2"
*.host0.app[2].destPort = 1001
*.host0.app[3].typename = "UdpBasicApp"
*.host0.app[3].destAddresses = "host2"
*.host0.app[3].source.packetNameFormat = "%M-%m-%c"
*.host0.app[3].source.displayStringTextFormat = "sent %p pk (%l)"
*.host0.app[3].messageLength = 13B
*.host0.app[3].sendInterval = 1ms
*.host0.app[3].startTime = 32ms
*.host0.app[3].stopTime = 33ms
*.host0.app[3].display-name = "type2_2"
*.host0.app[3].destPort = 1001
*.host0.app[4].typename = "UdpBasicApp"
*.host0.app[4].destAddresses = "host2"
*.host0.app[4].source.packetNameFormat = "%M-%m-%c"
*.host0.app[4].source.displayStringTextFormat = "sent %p pk (%l)"
*.host0.app[4].messageLength = 13B
*.host0.app[4].sendInterval = 1ms
*.host0.app[4].startTime = 38ms
*.host0.app[4].stopTime = 39ms
*.host0.app[4].display-name = "type2_2"
*.host0.app[4].destPort = 1001
*.host0.app[5].typename = "UdpBasicApp"
*.host0.app[5].destAddresses = "host2"
*.host0.app[5].source.packetNameFormat = "%M-%m-%c"
*.host0.app[5].source.displayStringTextFormat = "sent %p pk (%l)"
*.host0.app[5].messageLength = 13B
*.host0.app[5].sendInterval = 1ms
*.host0.app[5].startTime = 40ms
*.host0.app[5].stopTime = 54ms
*.host0.app[5].display-name = "type2_2"
*.host0.app[5].destPort = 1001
*.host0.app[6].typename = "UdpBasicApp"
*.host0.app[6].destAddresses = "host2"
*.host0.app[6].source.packetNameFormat = "%M-%m-%c"
*.host0.app[6].source.displayStringTextFormat = "sent %p pk (%l)"
*.host0.app[6].messageLength = 13B
*.host0.app[6].sendInterval = 1ms
*.host0.app[6].startTime = 59ms
*.host0.app[6].stopTime = 60ms
*.host0.app[6].display-name = "type2_2"
*.host0.app[6].destPort = 1001
*.host0.app[7].typename = "UdpSinkApp"
*.host0.app[7].io.localPort = 1002
*.host1.numApps = 7
*.host1.app[0].typename = "UdpSourceApp"
*.host1.app[0].io.destAddress = "host0"
*.host1.app[0].source.packetNameFormat = "%M-%m-%c"
*.host1.app[0].source.displayStringTextFormat = "sent %p pk (%l)"
*.host1.app[0].source.packetLength = 23B
*.host1.app[0].source.productionInterval = 1ms
*.host1.app[0].display-name = "type1_0"
*.host1.app[0].io.destPort = 1000
*.host1.app[1].typename = "UdpBasicApp"
*.host1.app[1].destAddresses = "host2"
*.host1.app[1].source.packetNameFormat = "%M-%m-%c"
*.host1.app[1].source.displayStringTextFormat = "sent %p pk (%l)"
*.host1.app[1].messageLength = 12B
*.host1.app[1].sendInterval = 1ms
*.host1.app[1].startTime = 22ms
*.host1.app[1].stopTime = 23ms
*.host1.app[1].display-name = "type2_0"
*.host1.app[1].destPort = 1000
*.host1.app[2].typename = "UdpBasicApp"
*.host1.app[2].destAddresses = "host2"
*.host1.app[2].source.packetNameFormat = "%M-%m-%c"
*.host1.app[2].source.displayStringTextFormat = "sent %p pk (%l)"
*.host1.app[2].messageLength = 12B
*.host1.app[2].sendInterval = 1ms
*.host1.app[2].startTime = 24ms
*.host1.app[2].stopTime = 36ms
*.host1.app[2].display-name = "type2_0"
*.host1.app[2].destPort = 1000
*.host1.app[3].typename = "UdpBasicApp"
*.host1.app[3].destAddresses = "host2"
*.host1.app[3].source.packetNameFormat = "%M-%m-%c"
*.host1.app[3].source.displayStringTextFormat = "sent %p pk (%l)"
*.host1.app[3].messageLength = 12B
*.host1.app[3].sendInterval = 1ms
*.host1.app[3].startTime = 40ms
*.host1.app[3].stopTime = 59ms
*.host1.app[3].display-name = "type2_0"
*.host1.app[3].destPort = 1000
*.host1.app[4].typename = "UdpBasicApp"
*.host1.app[4].destAddresses = "host2"
*.host1.app[4].source.packetNameFormat = "%M-%m-%c"
*.host1.app[4].source.displayStringTextFormat = "sent %p pk (%l)"
*.host1.app[4].messageLength = 12B
*.host1.app[4].sendInterval = 1ms
*.host1.app[4].startTime = 66ms
*.host1.app[4].stopTime = 71ms
*.host1.app[4].display-name = "type2_0"
*.host1.app[4].destPort = 1000
*.host1.app[5].typename = "UdpBasicApp"
*.host1.app[5].destAddresses = "host2"
*.host1.app[5].source.packetNameFormat = "%M-%m-%c"
*.host1.app[5].source.displayStringTextFormat = "sent %p pk (%l)"
*.host1.app[5].messageLength = 12B
*.host1.app[5].sendInterval = 1ms
*.host1.app[5].startTime = 90ms
*.host1.app[5].stopTime = 93ms
*.host1.app[5].display-name = "type2_0"
*.host1.app[5].destPort = 1000
*.host1.app[6].typename = "UdpBasicApp"
*.host1.app[6].destAddresses = "host2"
*.host1.app[6].source.packetNameFormat = "%M-%m-%c"
*.host1.app[6].source.displayStringTextFormat = "sent %p pk (%l)"
*.host1.app[6].messageLength = 12B
*.host1.app[6].sendInterval = 1ms
*.host1.app[6].startTime = 95ms
*.host1.app[6].stopTime = 100ms
*.host1.app[6].display-name = "type2_0"
*.host1.app[6].destPort = 1000
*.host2.numApps = 14
*.host2.app[0].typename = "UdpSourceApp"
*.host2.app[0].io.destAddress = "host0"
*.host2.app[0].source.packetNameFormat = "%M-%m-%c"
*.host2.app[0].source.displayStringTextFormat = "sent %p pk (%l)"
*.host2.app[0].source.packetLength = 24B
*.host2.app[0].source.productionInterval = 1ms
*.host2.app[0].display-name = "type1_1"
*.host2.app[0].io.destPort = 1001
*.host2.app[1].typename = "UdpSinkApp"
*.host2.app[1].io.localPort = 1000
*.host2.app[2].typename = "UdpBasicApp"
*.host2.app[2].destAddresses = "host4"
*.host2.app[2].source.packetNameFormat = "%M-%m-%c"
*.host2.app[2].source.displayStringTextFormat = "sent %p pk (%l)"
*.host2.app[2].messageLength = 12B
*.host2.app[2].sendInterval = 1ms
*.host2.app[2].startTime = 26ms
*.host2.app[2].stopTime = 29ms
*.host2.app[2].display-name = "type2_1"
*.host2.app[2].destPort = 1000
*.host2.app[3].typename = "UdpBasicApp"
*.host2.app[3].destAddresses = "host4"
*.host2.app[3].source.packetNameFormat = "%M-%m-%c"
*.host2.app[3].source.displayStringTextFormat = "sent %p pk (%l)"
*.host2.app[3].messageLength = 12B
*.host2.app[3].sendInterval = 1ms
*.host2.app[3].startTime = 32ms
*.host2.app[3].stopTime = 38ms
*.host2.app[3].display-name = "type2_1"
*.host2.app[3].destPort = 1000
*.host2.app[4].typename = "UdpBasicApp"
*.host2.app[4].destAddresses = "host4"
*.host2.app[4].source.packetNameFormat = "%M-%m-%c"
*.host2.app[4].source.displayStringTextFormat = "sent %p pk (%l)"
*.host2.app[4].messageLength = 12B
*.host2.app[4].sendInterval = 1ms
*.host2.app[4].startTime = 39ms
*.host2.app[4].stopTime = 47ms
*.host2.app[4].display-name = "type2_1"
*.host2.app[4].destPort = 1000
*.host2.app[5].typename = "UdpBasicApp"
*.host2.app[5].destAddresses = "host4"
*.host2.app[5].source.packetNameFormat = "%M-%m-%c"
*.host2.app[5].source.displayStringTextFormat = "sent %p pk (%l)"
*.host2.app[5].messageLength = 12B
*.host2.app[5].sendInterval = 1ms
*.host2.app[5].startTime = 54ms
*.host2.app[5].stopTime = 59ms
*.host2.app[5].display-name = "type2_1"
*.host2.app[5].destPort = 1000
*.host2.app[6].typename = "UdpBasicApp"
*.host2.app[6].destAddresses = "host4"
*.host2.app[6].source.packetNameFormat = "%M-%m-%c"
*.host2.app[6].source.displayStringTextFormat = "sent %p pk (%l)"
*.host2.app[6].messageLength = 12B
*.host2.app[6].sendInterval = 1ms
*.host2.app[6].startTime = 67ms
*.host2.app[6].stopTime = 80ms
*.host2.app[6].display-name = "type2_1"
*.host2.app[6].destPort = 1000
*.host2.app[7].typename = "UdpBasicApp"
*.host2.app[7].destAddresses = "host4"
*.host2.app[7].source.packetNameFormat = "%M-%m-%c"
*.host2.app[7].source.displayStringTextFormat = "sent %p pk (%l)"
*.host2.app[7].messageLength = 12B
*.host2.app[7].sendInterval = 1ms
*.host2.app[7].startTime = 81ms
*.host2.app[7].stopTime = 82ms
*.host2.app[7].display-name = "type2_1"
*.host2.app[7].destPort = 1000
*.host2.app[8].typename = "UdpBasicApp"
*.host2.app[8].destAddresses = "host4"
*.host2.app[8].source.packetNameFormat = "%M-%m-%c"
*.host2.app[8].source.displayStringTextFormat = "sent %p pk (%l)"
*.host2.app[8].messageLength = 12B
*.host2.app[8].sendInterval = 1ms
*.host2.app[8].startTime = 94ms
*.host2.app[8].stopTime = 96ms
*.host2.app[8].display-name = "type2_1"
*.host2.app[8].destPort = 1000
*.host2.app[9].typename = "UdpBasicApp"
*.host2.app[9].destAddresses = "host4"
*.host2.app[9].source.packetNameFormat = "%M-%m-%c"
*.host2.app[9].source.displayStringTextFormat = "sent %p pk (%l)"
*.host2.app[9].messageLength = 12B
*.host2.app[9].sendInterval = 1ms
*.host2.app[9].startTime = 97ms
*.host2.app[9].stopTime = 100ms
*.host2.app[9].display-name = "type2_1"
*.host2.app[9].destPort = 1000
*.host2.app[10].typename = "UdpSinkApp"
*.host2.app[10].io.localPort = 1001
*.host2.app[11].typename = "UdpBasicApp"
*.host2.app[11].destAddresses = "host0"
*.host2.app[11].source.packetNameFormat = "%M-%m-%c"
*.host2.app[11].source.displayStringTextFormat = "sent %p pk (%l)"
*.host2.app[11].messageLength = 15B
*.host2.app[11].sendInterval = 1ms
*.host2.app[11].startTime = 14ms
*.host2.app[11].stopTime = 26ms
*.host2.app[11].display-name = "type2_4"
*.host2.app[11].destPort = 1002
*.host2.app[12].typename = "UdpBasicApp"
*.host2.app[12].destAddresses = "host0"
*.host2.app[12].source.packetNameFormat = "%M-%m-%c"
*.host2.app[12].source.displayStringTextFormat = "sent %p pk (%l)"
*.host2.app[12].messageLength = 15B
*.host2.app[12].sendInterval = 1ms
*.host2.app[12].startTime = 30ms
*.host2.app[12].stopTime = 31ms
*.host2.app[12].display-name = "type2_4"
*.host2.app[12].destPort = 1002
*.host2.app[13].typename = "UdpBasicApp"
*.host2.app[13].destAddresses = "host0"
*.host2.app[13].source.packetNameFormat = "%M-%m-%c"
*.host2.app[13].source.displayStringTextFormat = "sent %p pk (%l)"
*.host2.app[13].messageLength = 15B
*.host2.app[13].sendInterval = 1ms
*.host2.app[13].startTime = 49ms
*.host2.app[13].stopTime = 50ms
*.host2.app[13].display-name = "type2_4"
*.host2.app[13].destPort = 1002
*.host3.numApps = 15
*.host3.app[0].typename = "UdpSinkApp"
*.host3.app[0].io.localPort = 1000
*.host3.app[1].typename = "UdpBasicApp"
*.host3.app[1].destAddresses = "host4"
*.host3.app[1].source.packetNameFormat = "%M-%m-%c"
*.host3.app[1].source.displayStringTextFormat = "sent %p pk (%l)"
*.host3.app[1].messageLength = 22B
*.host3.app[1].sendInterval = 1ms
*.host3.app[1].startTime = 2ms
*.host3.app[1].stopTime = 3ms
*.host3.app[1].display-name = "type2_3"
*.host3.app[1].destPort = 1001
*.host3.app[2].typename = "UdpBasicApp"
*.host3.app[2].destAddresses = "host4"
*.host3.app[2].source.packetNameFormat = "%M-%m-%c"
*.host3.app[2].source.displayStringTextFormat = "sent %p pk (%l)"
*.host3.app[2].messageLength = 22B
*.host3.app[2].sendInterval = 1ms
*.host3.app[2].startTime = 20ms
*.host3.app[2].stopTime = 21ms
*.host3.app[2].display-name = "type2_3"
*.host3.app[2].destPort = 1001
*.host3.app[3].typename = "UdpBasicApp"
*.host3.app[3].destAddresses = "host4"
*.host3.app[3].source.packetNameFormat = "%M-%m-%c"
*.host3.app[3].source.displayStringTextFormat = "sent %p pk (%l)"
*.host3.app[3].messageLength = 22B
*.host3.app[3].sendInterval = 1ms
*.host3.app[3].startTime = 27ms
*.host3.app[3].stopTime = 28ms
*.host3.app[3].display-name = "type2_3"
*.host3.app[3].destPort = 1001
*.host3.app[4].typename = "UdpBasicApp"
*.host3.app[4].destAddresses = "host4"
*.host3.app[4].source.packetNameFormat = "%M-%m-%c"
*.host3.app[4].source.displayStringTextFormat = "sent %p pk (%l)"
*.host3.app[4].messageLength = 22B
*.host3.app[4].sendInterval = 1ms
*.host3.app[4].startTime = 36ms
*.host3.app[4].stopTime = 46ms
*.host3.app[4].display-name = "type2_3"
*.host3.app[4].destPort = 1001
*.host3.app[5].typename = "UdpBasicApp"
*.host3.app[5].destAddresses = "host4"
*.host3.app[5].source.packetNameFormat = "%M-%m-%c"
*.host3.app[5].source.displayStringTextFormat = "sent %p pk (%l)"
*.host3.app[5].messageLength = 22B
*.host3.app[5].sendInterval = 1ms
*.host3.app[5].startTime = 53ms
*.host3.app[5].stopTime = 61ms
*.host3.app[5].display-name = "type2_3"
*.host3.app[5].destPort = 1001
*.host3.app[6].typename = "UdpBasicApp"
*.host3.app[6].destAddresses = "host4"
*.host3.app[6].source.packetNameFormat = "%M-%m-%c"
*.host3.app[6].source.displayStringTextFormat = "sent %p pk (%l)"
*.host3.app[6].messageLength = 22B
*.host3.app[6].sendInterval = 1ms
*.host3.app[6].startTime = 65ms
*.host3.app[6].stopTime = 66ms
*.host3.app[6].display-name = "type2_3"
*.host3.app[6].destPort = 1001
*.host3.app[7].typename = "UdpBasicApp"
*.host3.app[7].destAddresses = "host4"
*.host3.app[7].source.packetNameFormat = "%M-%m-%c"
*.host3.app[7].source.displayStringTextFormat = "sent %p pk (%l)"
*.host3.app[7].messageLength = 22B
*.host3.app[7].sendInterval = 1ms
*.host3.app[7].startTime = 70ms
*.host3.app[7].stopTime = 96ms
*.host3.app[7].display-name = "type2_3"
*.host3.app[7].destPort = 1001
*.host3.app[8].typename = "UdpBasicApp"
*.host3.app[8].destAddresses = "host4"
*.host3.app[8].source.packetNameFormat = "%M-%m-%c"
*.host3.app[8].source.displayStringTextFormat = "sent %p pk (%l)"
*.host3.app[8].messageLength = 20B
*.host3.app[8].sendInterval = 1ms
*.host3.app[8].startTime = 11ms
*.host3.app[8].stopTime = 23ms
*.host3.app[8].display-name = "type2_5"
*.host3.app[8].destPort = 1002
*.host3.app[9].typename = "UdpBasicApp"
*.host3.app[9].destAddresses = "host4"
*.host3.app[9].source.packetNameFormat = "%M-%m-%c"
*.host3.app[9].source.displayStringTextFormat = "sent %p pk (%l)"
*.host3.app[9].messageLength = 20B
*.host3.app[9].sendInterval = 1ms
*.host3.app[9].startTime = 31ms
*.host3.app[9].stopTime = 42ms
*.host3.app[9].display-name = "type2_5"
*.host3.app[9].destPort = 1002
*.host3.app[10].typename = "UdpBasicApp"
*.host3.app[10].destAddresses = "host4"
*.host3.app[10].source.packetNameFormat = "%M-%m-%c"
*.host3.app[10].source.displayStringTextFormat = "sent %p pk (%l)"
*.host3.app[10].messageLength = 20B
*.host3.app[10].sendInterval = 1ms
*.host3.app[10].startTime = 52ms
*.host3.app[10].stopTime = 53ms
*.host3.app[10].display-name = "type2_5"
*.host3.app[10].destPort = 1002
*.host3.app[11].typename = "UdpBasicApp"
*.host3.app[11].destAddresses = "host4"
*.host3.app[11].source.packetNameFormat = "%M-%m-%c"
*.host3.app[11].source.displayStringTextFormat = "sent %p pk (%l)"
*.host3.app[11].messageLength = 20B
*.host3.app[11].sendInterval = 1ms
*.host3.app[11].startTime = 54ms
*.host3.app[11].stopTime = 58ms
*.host3.app[11].display-name = "type2_5"
*.host3.app[11].destPort = 1002
*.host3.app[12].typename = "UdpBasicApp"
*.host3.app[12].destAddresses = "host4"
*.host3.app[12].source.packetNameFormat = "%M-%m-%c"
*.host3.app[12].source.displayStringTextFormat = "sent %p pk (%l)"
*.host3.app[12].messageLength = 20B
*.host3.app[12].sendInterval = 1ms
*.host3.app[12].startTime = 63ms
*.host3.app[12].stopTime = 75ms
*.host3.app[12].display-name = "type2_5"
*.host3.app[12].destPort = 1002
*.host3.app[13].typename = "UdpBasicApp"
*.host3.app[13].destAddresses = "host4"
*.host3.app[13].source.packetNameFormat = "%M-%m-%c"
*.host3.app[13].source.displayStringTextFormat = "sent %p pk (%l)"
*.host3.app[13].messageLength = 20B
*.host3.app[13].sendInterval = 1ms
*.host3.app[13].startTime = 77ms
*.host3.app[13].stopTime = 85ms
*.host3.app[13].display-name = "type2_5"
*.host3.app[13].destPort = 1002
*.host3.app[14].typename = "UdpBasicApp"
*.host3.app[14].destAddresses = "host4"
*.host3.app[14].source.packetNameFormat = "%M-%m-%c"
*.host3.app[14].source.displayStringTextFormat = "sent %p pk (%l)"
*.host3.app[14].messageLength = 20B
*.host3.app[14].sendInterval = 1ms
*.host3.app[14].startTime = 97ms
*.host3.app[14].stopTime = 100ms
*.host3.app[14].display-name = "type2_5"
*.host3.app[14].destPort = 1002
*.host4.numApps = 4
*.host4.app[0].typename = "UdpSourceApp"
*.host4.app[0].io.destAddress = "host3"
*.host4.app[0].source.packetNameFormat = "%M-%m-%c"
*.host4.app[0].source.displayStringTextFormat = "sent %p pk (%l)"
*.host4.app[0].source.packetLength = 13B
*.host4.app[0].source.productionInterval = 1ms
*.host4.app[0].display-name = "type1_2"
*.host4.app[0].io.destPort = 1000
*.host4.app[1].typename = "UdpSinkApp"
*.host4.app[1].io.localPort = 1000
*.host4.app[2].typename = "UdpSinkApp"
*.host4.app[2].io.localPort = 1001
*.host4.app[3].typename = "UdpSinkApp"
*.host4.app[3].io.localPort = 1002
*.streamRedundancyConfigurator.configuration = [
	{
		name: "S1-0",
		packetFilter: "*-type1_0-*",
		source: "host1",
		destination: "host0",
		trees: [[["host1", "switch1", "switch0", "host0"]]]
	},
	{
		name: "S1-1",
		packetFilter: "*-type1_1-*",
		source: "host2",
		destination: "host0",
		trees: [[["host2", "switch2", "switch3", "switch0", "host0"]]]
	},
	{
		name: "S1-2",
		packetFilter: "*-type1_2-*",
		source: "host4",
		destination: "host3",
		trees: [[["host4", "switch4", "switch3", "host3"]]]
	},
	{
		name: "S2-0",
		packetFilter: "*-type2_0-*",
		source: "host1",
		destination: "host2",
		trees: [[["host1", "switch1", "switch2", "host2"]]]
	},
	{
		name: "S2-1",
		packetFilter: "*-type2_1-*",
		source: "host2",
		destination: "host4",
		trees: [[["host2", "switch2", "switch3", "switch4", "host4"]]]
	},
	{
		name: "S2-2",
		packetFilter: "*-type2_2-*",
		source: "host0",
		destination: "host2",
		trees: [[["host0", "switch0", "switch1", "switch2", "host2"]]]
	},
	{
		name: "S2-3",
		packetFilter: "*-type2_3-*",
		source: "host3",
		destination: "host4",
		trees: [[["host3", "switch3", "switch4", "host4"]]]
	},
	{
		name: "S2-4",
		packetFilter: "*-type2_4-*",
		source: "host2",
		destination: "host0",
		trees: [[["host2", "switch2", "switch3", "switch0", "host0"]]]
	},
	{
		name: "S2-5",
		packetFilter: "*-type2_5-*",
		source: "host3",
		destination: "host4",
		trees: [[["host3", "switch3", "switch4", "host4"]]]
	}]
	

