[General]
network = TSN_multipath
sim-time-limit = 10ms
*.macForwardingTableConfigurator.typename = ""
*.*.hasStreamRedundancy = true
*.*.bridging.streamRelay.typename = "StreamRelayLayer"
*.*.bridging.streamCoder.typename = "StreamCoderLayer"
*.streamRedundancyConfigurator.typename = "StreamRedundancyConfigurator"
*.host0.eth[0].bitrate = 1000Mbps
*.switch0.eth[0].bitrate = 1000Mbps
*.switch0.eth[1].bitrate = 1600Mbps
*.switch0.eth[2].bitrate = 1600Mbps
*.switch0.eth[3].bitrate = 1200Mbps
*.host1.eth[0].bitrate = 1000Mbps
*.switch1.eth[0].bitrate = 1000Mbps
*.switch1.eth[1].bitrate = 2200Mbps
*.switch1.eth[2].bitrate = 1900Mbps
*.switch1.eth[3].bitrate = 1600Mbps
*.host2.eth[0].bitrate = 1000Mbps
*.switch2.eth[0].bitrate = 1000Mbps
*.switch2.eth[1].bitrate = 2200Mbps
*.switch2.eth[2].bitrate = 1600Mbps
*.switch2.eth[3].bitrate = 1400Mbps
*.host3.eth[0].bitrate = 1000Mbps
*.switch3.eth[0].bitrate = 1000Mbps
*.switch3.eth[1].bitrate = 1600Mbps
*.switch3.eth[2].bitrate = 1900Mbps
*.switch3.eth[3].bitrate = 1200Mbps
*.switch3.eth[4].bitrate = 2200Mbps
*.host4.eth[0].bitrate = 1000Mbps
*.switch4.eth[0].bitrate = 1000Mbps
*.switch4.eth[1].bitrate = 2200Mbps
*.switch4.eth[2].bitrate = 1600Mbps
*.switch4.eth[3].bitrate = 1400Mbps
*.host0.numApps = 20
*.host0.app[0].typename = "UdpSinkApp"
*.host0.app[0].io.localPort = 1000
*.host0.app[1].typename = "UdpSourceApp"
*.host0.app[1].io.destAddress = "host4"
*.host0.app[1].source.packetNameFormat = "%M-%m-%c"
*.host0.app[1].source.displayStringTextFormat = "sent %p pk (%l)"
*.host0.app[1].source.packetLength = 14B
*.host0.app[1].source.productionInterval = 1ms
*.host0.app[1].display-name = "type1_1"
*.host0.app[1].io.destPort = 1000
*.host0.app[2].typename = "UdpSinkApp"
*.host0.app[2].io.localPort = 1001
*.host0.app[3].typename = "UdpBasicApp"
*.host0.app[3].destAddresses = "host1"
*.host0.app[3].source.packetNameFormat = "%M-%m-%c"
*.host0.app[3].source.displayStringTextFormat = "sent %p pk (%l)"
*.host0.app[3].messageLength = 12B
*.host0.app[3].sendInterval = 1ms
*.host0.app[3].startTime = 1000us
*.host0.app[3].stopTime = 1300us
*.host0.app[3].display-name = "type2_1"
*.host0.app[3].destPort = 1000
*.host0.app[4].typename = "UdpBasicApp"
*.host0.app[4].destAddresses = "host1"
*.host0.app[4].source.packetNameFormat = "%M-%m-%c"
*.host0.app[4].source.displayStringTextFormat = "sent %p pk (%l)"
*.host0.app[4].messageLength = 12B
*.host0.app[4].sendInterval = 1ms
*.host0.app[4].startTime = 1400us
*.host0.app[4].stopTime = 1500us
*.host0.app[4].display-name = "type2_1"
*.host0.app[4].destPort = 1000
*.host0.app[5].typename = "UdpBasicApp"
*.host0.app[5].destAddresses = "host1"
*.host0.app[5].source.packetNameFormat = "%M-%m-%c"
*.host0.app[5].source.displayStringTextFormat = "sent %p pk (%l)"
*.host0.app[5].messageLength = 12B
*.host0.app[5].sendInterval = 1ms
*.host0.app[5].startTime = 1700us
*.host0.app[5].stopTime = 2300us
*.host0.app[5].display-name = "type2_1"
*.host0.app[5].destPort = 1000
*.host0.app[6].typename = "UdpBasicApp"
*.host0.app[6].destAddresses = "host1"
*.host0.app[6].source.packetNameFormat = "%M-%m-%c"
*.host0.app[6].source.displayStringTextFormat = "sent %p pk (%l)"
*.host0.app[6].messageLength = 12B
*.host0.app[6].sendInterval = 1ms
*.host0.app[6].startTime = 3400us
*.host0.app[6].stopTime = 3600us
*.host0.app[6].display-name = "type2_1"
*.host0.app[6].destPort = 1000
*.host0.app[7].typename = "UdpBasicApp"
*.host0.app[7].destAddresses = "host1"
*.host0.app[7].source.packetNameFormat = "%M-%m-%c"
*.host0.app[7].source.displayStringTextFormat = "sent %p pk (%l)"
*.host0.app[7].messageLength = 12B
*.host0.app[7].sendInterval = 1ms
*.host0.app[7].startTime = 3800us
*.host0.app[7].stopTime = 4000us
*.host0.app[7].display-name = "type2_1"
*.host0.app[7].destPort = 1000
*.host0.app[8].typename = "UdpBasicApp"
*.host0.app[8].destAddresses = "host1"
*.host0.app[8].source.packetNameFormat = "%M-%m-%c"
*.host0.app[8].source.displayStringTextFormat = "sent %p pk (%l)"
*.host0.app[8].messageLength = 12B
*.host0.app[8].sendInterval = 1ms
*.host0.app[8].startTime = 4100us
*.host0.app[8].stopTime = 4900us
*.host0.app[8].display-name = "type2_1"
*.host0.app[8].destPort = 1000
*.host0.app[9].typename = "UdpBasicApp"
*.host0.app[9].destAddresses = "host1"
*.host0.app[9].source.packetNameFormat = "%M-%m-%c"
*.host0.app[9].source.displayStringTextFormat = "sent %p pk (%l)"
*.host0.app[9].messageLength = 12B
*.host0.app[9].sendInterval = 1ms
*.host0.app[9].startTime = 6200us
*.host0.app[9].stopTime = 7500us
*.host0.app[9].display-name = "type2_1"
*.host0.app[9].destPort = 1000
*.host0.app[10].typename = "UdpBasicApp"
*.host0.app[10].destAddresses = "host1"
*.host0.app[10].source.packetNameFormat = "%M-%m-%c"
*.host0.app[10].source.displayStringTextFormat = "sent %p pk (%l)"
*.host0.app[10].messageLength = 12B
*.host0.app[10].sendInterval = 1ms
*.host0.app[10].startTime = 7800us
*.host0.app[10].stopTime = 8300us
*.host0.app[10].display-name = "type2_1"
*.host0.app[10].destPort = 1000
*.host0.app[11].typename = "UdpBasicApp"
*.host0.app[11].destAddresses = "host1"
*.host0.app[11].source.packetNameFormat = "%M-%m-%c"
*.host0.app[11].source.displayStringTextFormat = "sent %p pk (%l)"
*.host0.app[11].messageLength = 12B
*.host0.app[11].sendInterval = 1ms
*.host0.app[11].startTime = 8600us
*.host0.app[11].stopTime = 9100us
*.host0.app[11].display-name = "type2_1"
*.host0.app[11].destPort = 1000
*.host0.app[12].typename = "UdpBasicApp"
*.host0.app[12].destAddresses = "host1"
*.host0.app[12].source.packetNameFormat = "%M-%m-%c"
*.host0.app[12].source.displayStringTextFormat = "sent %p pk (%l)"
*.host0.app[12].messageLength = 12B
*.host0.app[12].sendInterval = 1ms
*.host0.app[12].startTime = 9300us
*.host0.app[12].stopTime = 10000us
*.host0.app[12].display-name = "type2_1"
*.host0.app[12].destPort = 1000
*.host0.app[13].typename = "UdpBasicApp"
*.host0.app[13].destAddresses = "host3"
*.host0.app[13].source.packetNameFormat = "%M-%m-%c"
*.host0.app[13].source.displayStringTextFormat = "sent %p pk (%l)"
*.host0.app[13].messageLength = 21B
*.host0.app[13].sendInterval = 1ms
*.host0.app[13].startTime = 0us
*.host0.app[13].stopTime = 500us
*.host0.app[13].display-name = "type2_4"
*.host0.app[13].destPort = 1000
*.host0.app[14].typename = "UdpBasicApp"
*.host0.app[14].destAddresses = "host3"
*.host0.app[14].source.packetNameFormat = "%M-%m-%c"
*.host0.app[14].source.displayStringTextFormat = "sent %p pk (%l)"
*.host0.app[14].messageLength = 21B
*.host0.app[14].sendInterval = 1ms
*.host0.app[14].startTime = 1400us
*.host0.app[14].stopTime = 2700us
*.host0.app[14].display-name = "type2_4"
*.host0.app[14].destPort = 1000
*.host0.app[15].typename = "UdpBasicApp"
*.host0.app[15].destAddresses = "host3"
*.host0.app[15].source.packetNameFormat = "%M-%m-%c"
*.host0.app[15].source.displayStringTextFormat = "sent %p pk (%l)"
*.host0.app[15].messageLength = 21B
*.host0.app[15].sendInterval = 1ms
*.host0.app[15].startTime = 2800us
*.host0.app[15].stopTime = 3200us
*.host0.app[15].display-name = "type2_4"
*.host0.app[15].destPort = 1000
*.host0.app[16].typename = "UdpBasicApp"
*.host0.app[16].destAddresses = "host3"
*.host0.app[16].source.packetNameFormat = "%M-%m-%c"
*.host0.app[16].source.displayStringTextFormat = "sent %p pk (%l)"
*.host0.app[16].messageLength = 21B
*.host0.app[16].sendInterval = 1ms
*.host0.app[16].startTime = 3300us
*.host0.app[16].stopTime = 3400us
*.host0.app[16].display-name = "type2_4"
*.host0.app[16].destPort = 1000
*.host0.app[17].typename = "UdpBasicApp"
*.host0.app[17].destAddresses = "host3"
*.host0.app[17].source.packetNameFormat = "%M-%m-%c"
*.host0.app[17].source.displayStringTextFormat = "sent %p pk (%l)"
*.host0.app[17].messageLength = 21B
*.host0.app[17].sendInterval = 1ms
*.host0.app[17].startTime = 4200us
*.host0.app[17].stopTime = 4600us
*.host0.app[17].display-name = "type2_4"
*.host0.app[17].destPort = 1000
*.host0.app[18].typename = "UdpBasicApp"
*.host0.app[18].destAddresses = "host3"
*.host0.app[18].source.packetNameFormat = "%M-%m-%c"
*.host0.app[18].source.displayStringTextFormat = "sent %p pk (%l)"
*.host0.app[18].messageLength = 21B
*.host0.app[18].sendInterval = 1ms
*.host0.app[18].startTime = 5800us
*.host0.app[18].stopTime = 6700us
*.host0.app[18].display-name = "type2_4"
*.host0.app[18].destPort = 1000
*.host0.app[19].typename = "UdpBasicApp"
*.host0.app[19].destAddresses = "host3"
*.host0.app[19].source.packetNameFormat = "%M-%m-%c"
*.host0.app[19].source.displayStringTextFormat = "sent %p pk (%l)"
*.host0.app[19].messageLength = 21B
*.host0.app[19].sendInterval = 1ms
*.host0.app[19].startTime = 7400us
*.host0.app[19].stopTime = 7600us
*.host0.app[19].display-name = "type2_4"
*.host0.app[19].destPort = 1000
*.host1.numApps = 4
*.host1.app[0].typename = "UdpSinkApp"
*.host1.app[0].io.localPort = 1000
*.host1.app[1].typename = "UdpBasicApp"
*.host1.app[1].destAddresses = "host4"
*.host1.app[1].source.packetNameFormat = "%M-%m-%c"
*.host1.app[1].source.displayStringTextFormat = "sent %p pk (%l)"
*.host1.app[1].messageLength = 14B
*.host1.app[1].sendInterval = 1ms
*.host1.app[1].startTime = 4700us
*.host1.app[1].stopTime = 7300us
*.host1.app[1].display-name = "type2_2"
*.host1.app[1].destPort = 1002
*.host1.app[2].typename = "UdpBasicApp"
*.host1.app[2].destAddresses = "host4"
*.host1.app[2].source.packetNameFormat = "%M-%m-%c"
*.host1.app[2].source.displayStringTextFormat = "sent %p pk (%l)"
*.host1.app[2].messageLength = 14B
*.host1.app[2].sendInterval = 1ms
*.host1.app[2].startTime = 7400us
*.host1.app[2].stopTime = 7900us
*.host1.app[2].display-name = "type2_2"
*.host1.app[2].destPort = 1002
*.host1.app[3].typename = "UdpBasicApp"
*.host1.app[3].destAddresses = "host4"
*.host1.app[3].source.packetNameFormat = "%M-%m-%c"
*.host1.app[3].source.displayStringTextFormat = "sent %p pk (%l)"
*.host1.app[3].messageLength = 14B
*.host1.app[3].sendInterval = 1ms
*.host1.app[3].startTime = 8900us
*.host1.app[3].stopTime = 10000us
*.host1.app[3].display-name = "type2_2"
*.host1.app[3].destPort = 1002
*.host2.numApps = 2
*.host2.app[0].typename = "UdpSourceApp"
*.host2.app[0].io.destAddress = "host0"
*.host2.app[0].source.packetNameFormat = "%M-%m-%c"
*.host2.app[0].source.displayStringTextFormat = "sent %p pk (%l)"
*.host2.app[0].source.packetLength = 20B
*.host2.app[0].source.productionInterval = 1ms
*.host2.app[0].display-name = "type1_0"
*.host2.app[0].io.destPort = 1000
*.host2.app[1].typename = "UdpSinkApp"
*.host2.app[1].io.localPort = 1000
*.host3.numApps = 20
*.host3.app[0].typename = "UdpSourceApp"
*.host3.app[0].io.destAddress = "host0"
*.host3.app[0].source.packetNameFormat = "%M-%m-%c"
*.host3.app[0].source.displayStringTextFormat = "sent %p pk (%l)"
*.host3.app[0].source.packetLength = 13B
*.host3.app[0].source.productionInterval = 1ms
*.host3.app[0].display-name = "type1_2"
*.host3.app[0].io.destPort = 1001
*.host3.app[1].typename = "UdpBasicApp"
*.host3.app[1].destAddresses = "host4"
*.host3.app[1].source.packetNameFormat = "%M-%m-%c"
*.host3.app[1].source.displayStringTextFormat = "sent %p pk (%l)"
*.host3.app[1].messageLength = 17B
*.host3.app[1].sendInterval = 1ms
*.host3.app[1].startTime = 400us
*.host3.app[1].stopTime = 1400us
*.host3.app[1].display-name = "type2_0"
*.host3.app[1].destPort = 1001
*.host3.app[2].typename = "UdpBasicApp"
*.host3.app[2].destAddresses = "host4"
*.host3.app[2].source.packetNameFormat = "%M-%m-%c"
*.host3.app[2].source.displayStringTextFormat = "sent %p pk (%l)"
*.host3.app[2].messageLength = 17B
*.host3.app[2].sendInterval = 1ms
*.host3.app[2].startTime = 4400us
*.host3.app[2].stopTime = 5200us
*.host3.app[2].display-name = "type2_0"
*.host3.app[2].destPort = 1001
*.host3.app[3].typename = "UdpBasicApp"
*.host3.app[3].destAddresses = "host4"
*.host3.app[3].source.packetNameFormat = "%M-%m-%c"
*.host3.app[3].source.displayStringTextFormat = "sent %p pk (%l)"
*.host3.app[3].messageLength = 17B
*.host3.app[3].sendInterval = 1ms
*.host3.app[3].startTime = 5600us
*.host3.app[3].stopTime = 8400us
*.host3.app[3].display-name = "type2_0"
*.host3.app[3].destPort = 1001
*.host3.app[4].typename = "UdpBasicApp"
*.host3.app[4].destAddresses = "host2"
*.host3.app[4].source.packetNameFormat = "%M-%m-%c"
*.host3.app[4].source.displayStringTextFormat = "sent %p pk (%l)"
*.host3.app[4].messageLength = 16B
*.host3.app[4].sendInterval = 1ms
*.host3.app[4].startTime = 400us
*.host3.app[4].stopTime = 500us
*.host3.app[4].display-name = "type2_3"
*.host3.app[4].destPort = 1000
*.host3.app[5].typename = "UdpBasicApp"
*.host3.app[5].destAddresses = "host2"
*.host3.app[5].source.packetNameFormat = "%M-%m-%c"
*.host3.app[5].source.displayStringTextFormat = "sent %p pk (%l)"
*.host3.app[5].messageLength = 16B
*.host3.app[5].sendInterval = 1ms
*.host3.app[5].startTime = 1100us
*.host3.app[5].stopTime = 2300us
*.host3.app[5].display-name = "type2_3"
*.host3.app[5].destPort = 1000
*.host3.app[6].typename = "UdpBasicApp"
*.host3.app[6].destAddresses = "host2"
*.host3.app[6].source.packetNameFormat = "%M-%m-%c"
*.host3.app[6].source.displayStringTextFormat = "sent %p pk (%l)"
*.host3.app[6].messageLength = 16B
*.host3.app[6].sendInterval = 1ms
*.host3.app[6].startTime = 2800us
*.host3.app[6].stopTime = 3100us
*.host3.app[6].display-name = "type2_3"
*.host3.app[6].destPort = 1000
*.host3.app[7].typename = "UdpBasicApp"
*.host3.app[7].destAddresses = "host2"
*.host3.app[7].source.packetNameFormat = "%M-%m-%c"
*.host3.app[7].source.displayStringTextFormat = "sent %p pk (%l)"
*.host3.app[7].messageLength = 16B
*.host3.app[7].sendInterval = 1ms
*.host3.app[7].startTime = 3200us
*.host3.app[7].stopTime = 3300us
*.host3.app[7].display-name = "type2_3"
*.host3.app[7].destPort = 1000
*.host3.app[8].typename = "UdpBasicApp"
*.host3.app[8].destAddresses = "host2"
*.host3.app[8].source.packetNameFormat = "%M-%m-%c"
*.host3.app[8].source.displayStringTextFormat = "sent %p pk (%l)"
*.host3.app[8].messageLength = 16B
*.host3.app[8].sendInterval = 1ms
*.host3.app[8].startTime = 3400us
*.host3.app[8].stopTime = 4200us
*.host3.app[8].display-name = "type2_3"
*.host3.app[8].destPort = 1000
*.host3.app[9].typename = "UdpBasicApp"
*.host3.app[9].destAddresses = "host2"
*.host3.app[9].source.packetNameFormat = "%M-%m-%c"
*.host3.app[9].source.displayStringTextFormat = "sent %p pk (%l)"
*.host3.app[9].messageLength = 16B
*.host3.app[9].sendInterval = 1ms
*.host3.app[9].startTime = 5100us
*.host3.app[9].stopTime = 6200us
*.host3.app[9].display-name = "type2_3"
*.host3.app[9].destPort = 1000
*.host3.app[10].typename = "UdpBasicApp"
*.host3.app[10].destAddresses = "host2"
*.host3.app[10].source.packetNameFormat = "%M-%m-%c"
*.host3.app[10].source.displayStringTextFormat = "sent %p pk (%l)"
*.host3.app[10].messageLength = 16B
*.host3.app[10].sendInterval = 1ms
*.host3.app[10].startTime = 7300us
*.host3.app[10].stopTime = 8800us
*.host3.app[10].display-name = "type2_3"
*.host3.app[10].destPort = 1000
*.host3.app[11].typename = "UdpBasicApp"
*.host3.app[11].destAddresses = "host2"
*.host3.app[11].source.packetNameFormat = "%M-%m-%c"
*.host3.app[11].source.displayStringTextFormat = "sent %p pk (%l)"
*.host3.app[11].messageLength = 16B
*.host3.app[11].sendInterval = 1ms
*.host3.app[11].startTime = 9000us
*.host3.app[11].stopTime = 9100us
*.host3.app[11].display-name = "type2_3"
*.host3.app[11].destPort = 1000
*.host3.app[12].typename = "UdpBasicApp"
*.host3.app[12].destAddresses = "host2"
*.host3.app[12].source.packetNameFormat = "%M-%m-%c"
*.host3.app[12].source.displayStringTextFormat = "sent %p pk (%l)"
*.host3.app[12].messageLength = 16B
*.host3.app[12].sendInterval = 1ms
*.host3.app[12].startTime = 9900us
*.host3.app[12].stopTime = 10000us
*.host3.app[12].display-name = "type2_3"
*.host3.app[12].destPort = 1000
*.host3.app[13].typename = "UdpSinkApp"
*.host3.app[13].io.localPort = 1000
*.host3.app[14].typename = "UdpBasicApp"
*.host3.app[14].destAddresses = "host4"
*.host3.app[14].source.packetNameFormat = "%M-%m-%c"
*.host3.app[14].source.displayStringTextFormat = "sent %p pk (%l)"
*.host3.app[14].messageLength = 18B
*.host3.app[14].sendInterval = 1ms
*.host3.app[14].startTime = 100us
*.host3.app[14].stopTime = 1700us
*.host3.app[14].display-name = "type2_5"
*.host3.app[14].destPort = 1003
*.host3.app[15].typename = "UdpBasicApp"
*.host3.app[15].destAddresses = "host4"
*.host3.app[15].source.packetNameFormat = "%M-%m-%c"
*.host3.app[15].source.displayStringTextFormat = "sent %p pk (%l)"
*.host3.app[15].messageLength = 18B
*.host3.app[15].sendInterval = 1ms
*.host3.app[15].startTime = 1900us
*.host3.app[15].stopTime = 2100us
*.host3.app[15].display-name = "type2_5"
*.host3.app[15].destPort = 1003
*.host3.app[16].typename = "UdpBasicApp"
*.host3.app[16].destAddresses = "host4"
*.host3.app[16].source.packetNameFormat = "%M-%m-%c"
*.host3.app[16].source.displayStringTextFormat = "sent %p pk (%l)"
*.host3.app[16].messageLength = 18B
*.host3.app[16].sendInterval = 1ms
*.host3.app[16].startTime = 3600us
*.host3.app[16].stopTime = 5800us
*.host3.app[16].display-name = "type2_5"
*.host3.app[16].destPort = 1003
*.host3.app[17].typename = "UdpBasicApp"
*.host3.app[17].destAddresses = "host4"
*.host3.app[17].source.packetNameFormat = "%M-%m-%c"
*.host3.app[17].source.displayStringTextFormat = "sent %p pk (%l)"
*.host3.app[17].messageLength = 18B
*.host3.app[17].sendInterval = 1ms
*.host3.app[17].startTime = 7000us
*.host3.app[17].stopTime = 7100us
*.host3.app[17].display-name = "type2_5"
*.host3.app[17].destPort = 1003
*.host3.app[18].typename = "UdpBasicApp"
*.host3.app[18].destAddresses = "host4"
*.host3.app[18].source.packetNameFormat = "%M-%m-%c"
*.host3.app[18].source.displayStringTextFormat = "sent %p pk (%l)"
*.host3.app[18].messageLength = 18B
*.host3.app[18].sendInterval = 1ms
*.host3.app[18].startTime = 7900us
*.host3.app[18].stopTime = 8800us
*.host3.app[18].display-name = "type2_5"
*.host3.app[18].destPort = 1003
*.host3.app[19].typename = "UdpBasicApp"
*.host3.app[19].destAddresses = "host4"
*.host3.app[19].source.packetNameFormat = "%M-%m-%c"
*.host3.app[19].source.displayStringTextFormat = "sent %p pk (%l)"
*.host3.app[19].messageLength = 18B
*.host3.app[19].sendInterval = 1ms
*.host3.app[19].startTime = 9200us
*.host3.app[19].stopTime = 10000us
*.host3.app[19].display-name = "type2_5"
*.host3.app[19].destPort = 1003
*.host4.numApps = 4
*.host4.app[0].typename = "UdpSinkApp"
*.host4.app[0].io.localPort = 1000
*.host4.app[1].typename = "UdpSinkApp"
*.host4.app[1].io.localPort = 1001
*.host4.app[2].typename = "UdpSinkApp"
*.host4.app[2].io.localPort = 1002
*.host4.app[3].typename = "UdpSinkApp"
*.host4.app[3].io.localPort = 1003
*.streamRedundancyConfigurator.configuration = [
	{
		name: "S1-0",
		packetFilter: "*-type1_0-*",
		source: "host2",
		destination: "host0",
		trees: [[["host2", "switch2", "switch0", "host0"]]]
	},
	{
		name: "S1-1",
		packetFilter: "*-type1_1-*",
		source: "host0",
		destination: "host4",
		trees: [[["host0", "switch0", "switch3", "switch4", "host4"]]]
	},
	{
		name: "S1-2",
		packetFilter: "*-type1_2-*",
		source: "host3",
		destination: "host0",
		trees: [[["host3", "switch3", "switch0", "host0"]]]
	},
	{
		name: "S2-0",
		packetFilter: "*-type2_0-*",
		source: "host3",
		destination: "host4",
		trees: [[["host3", "switch3", "switch4", "host4"]]]
	},
	{
		name: "S2-1",
		packetFilter: "*-type2_1-*",
		source: "host0",
		destination: "host1",
		trees: [[["host0", "switch0", "switch3", "switch4", "switch1", "host1"]]]
	},
	{
		name: "S2-2",
		packetFilter: "*-type2_2-*",
		source: "host1",
		destination: "host4",
		trees: [[["host1", "switch1", "switch2", "switch0", "switch3", "switch4", "host4"]]]
	},
	{
		name: "S2-3",
		packetFilter: "*-type2_3-*",
		source: "host3",
		destination: "host2",
		trees: [[["host3", "switch3", "switch4", "switch1", "switch2", "host2"]]]
	},
	{
		name: "S2-4",
		packetFilter: "*-type2_4-*",
		source: "host0",
		destination: "host3",
		trees: [[["host0", "switch0", "switch3", "host3"]]]
	},
	{
		name: "S2-5",
		packetFilter: "*-type2_5-*",
		source: "host3",
		destination: "host4",
		trees: [[["host3", "switch3", "switch4", "host4"]]]
	}]
	

