[General]
network = TSN_multipath
sim-time-limit = 100ms
*.macForwardingTableConfigurator.typename = ""
*.*.hasStreamRedundancy = true
*.*.bridging.streamRelay.typename = "StreamRelayLayer"
*.*.bridging.streamCoder.typename = "StreamCoderLayer"
*.streamRedundancyConfigurator.typename = "StreamRedundancyConfigurator"
*.host0.eth[0].bitrate = 1000Mbps
*.switch0.eth[0].bitrate = 1000Mbps
*.switch0.eth[1].bitrate = 1300Mbps
*.switch0.eth[2].bitrate = 1500Mbps
*.switch0.eth[3].bitrate = 2300Mbps
*.switch0.eth[4].bitrate = 2200Mbps
*.switch0.eth[5].bitrate = 1200Mbps
*.switch0.eth[6].bitrate = 2300Mbps
*.switch0.eth[7].bitrate = 1400Mbps
*.switch0.eth[8].bitrate = 1700Mbps
*.switch0.eth[9].bitrate = 2300Mbps
*.switch0.eth[10].bitrate = 2200Mbps
*.switch0.eth[11].bitrate = 1200Mbps
*.switch0.eth[12].bitrate = 1200Mbps
*.switch0.eth[13].bitrate = 2400Mbps
*.switch0.eth[14].bitrate = 2300Mbps
*.switch0.eth[15].bitrate = 2300Mbps
*.host1.eth[0].bitrate = 1000Mbps
*.switch1.eth[0].bitrate = 1000Mbps
*.switch1.eth[1].bitrate = 2300Mbps
*.switch1.eth[2].bitrate = 1800Mbps
*.switch1.eth[3].bitrate = 1200Mbps
*.switch1.eth[4].bitrate = 1400Mbps
*.switch1.eth[5].bitrate = 1300Mbps
*.switch1.eth[6].bitrate = 1400Mbps
*.switch1.eth[7].bitrate = 2000Mbps
*.switch1.eth[8].bitrate = 1800Mbps
*.switch1.eth[9].bitrate = 1700Mbps
*.switch1.eth[10].bitrate = 1600Mbps
*.switch1.eth[11].bitrate = 2200Mbps
*.switch1.eth[12].bitrate = 1800Mbps
*.switch1.eth[13].bitrate = 2400Mbps
*.switch1.eth[14].bitrate = 1500Mbps
*.switch1.eth[15].bitrate = 1300Mbps
*.switch1.eth[16].bitrate = 1200Mbps
*.switch1.eth[17].bitrate = 1800Mbps
*.switch1.eth[18].bitrate = 2000Mbps
*.switch1.eth[19].bitrate = 1400Mbps
*.switch1.eth[20].bitrate = 2200Mbps
*.switch1.eth[21].bitrate = 1600Mbps
*.switch1.eth[22].bitrate = 1200Mbps
*.switch1.eth[23].bitrate = 1700Mbps
*.host2.eth[0].bitrate = 1000Mbps
*.switch2.eth[0].bitrate = 1000Mbps
*.switch2.eth[1].bitrate = 2300Mbps
*.switch2.eth[2].bitrate = 2100Mbps
*.switch2.eth[3].bitrate = 1200Mbps
*.switch2.eth[4].bitrate = 2400Mbps
*.switch2.eth[5].bitrate = 2000Mbps
*.switch2.eth[6].bitrate = 1800Mbps
*.switch2.eth[7].bitrate = 1600Mbps
*.switch2.eth[8].bitrate = 1200Mbps
*.switch2.eth[9].bitrate = 2200Mbps
*.switch2.eth[10].bitrate = 1300Mbps
*.host3.eth[0].bitrate = 1000Mbps
*.switch3.eth[0].bitrate = 1000Mbps
*.switch3.eth[1].bitrate = 1500Mbps
*.switch3.eth[2].bitrate = 1200Mbps
*.switch3.eth[3].bitrate = 2000Mbps
*.switch3.eth[4].bitrate = 2200Mbps
*.switch3.eth[5].bitrate = 1300Mbps
*.switch3.eth[6].bitrate = 1500Mbps
*.switch3.eth[7].bitrate = 1600Mbps
*.switch3.eth[8].bitrate = 2000Mbps
*.switch3.eth[9].bitrate = 1700Mbps
*.switch3.eth[10].bitrate = 2200Mbps
*.switch3.eth[11].bitrate = 1500Mbps
*.switch3.eth[12].bitrate = 1900Mbps
*.switch3.eth[13].bitrate = 1600Mbps
*.switch3.eth[14].bitrate = 1600Mbps
*.switch3.eth[15].bitrate = 1900Mbps
*.switch3.eth[16].bitrate = 2000Mbps
*.switch3.eth[17].bitrate = 1900Mbps
*.switch3.eth[18].bitrate = 2400Mbps
*.switch3.eth[19].bitrate = 1300Mbps
*.host4.eth[0].bitrate = 1000Mbps
*.switch4.eth[0].bitrate = 1000Mbps
*.switch4.eth[1].bitrate = 1300Mbps
*.switch4.eth[2].bitrate = 1800Mbps
*.switch4.eth[3].bitrate = 2000Mbps
*.switch4.eth[4].bitrate = 2300Mbps
*.switch4.eth[5].bitrate = 1300Mbps
*.switch4.eth[6].bitrate = 2400Mbps
*.switch4.eth[7].bitrate = 1800Mbps
*.switch4.eth[8].bitrate = 1600Mbps
*.switch4.eth[9].bitrate = 1700Mbps
*.switch4.eth[10].bitrate = 2000Mbps
*.switch4.eth[11].bitrate = 2400Mbps
*.switch4.eth[12].bitrate = 1200Mbps
*.switch4.eth[13].bitrate = 1400Mbps
*.switch4.eth[14].bitrate = 2000Mbps
*.switch4.eth[15].bitrate = 1600Mbps
*.switch4.eth[16].bitrate = 1800Mbps
*.switch4.eth[17].bitrate = 1700Mbps
*.switch4.eth[18].bitrate = 1600Mbps
*.switch4.eth[19].bitrate = 1800Mbps
*.switch4.eth[20].bitrate = 1200Mbps
*.switch4.eth[21].bitrate = 2400Mbps
*.switch4.eth[22].bitrate = 2300Mbps
*.switch4.eth[23].bitrate = 2000Mbps
*.switch4.eth[24].bitrate = 1900Mbps
*.switch4.eth[25].bitrate = 1400Mbps
*.switch4.eth[26].bitrate = 1400Mbps
*.switch4.eth[27].bitrate = 2000Mbps
*.switch4.eth[28].bitrate = 1300Mbps
*.switch4.eth[29].bitrate = 2400Mbps
*.switch4.eth[30].bitrate = 2300Mbps
*.switch4.eth[31].bitrate = 1400Mbps
*.host5.eth[0].bitrate = 1000Mbps
*.switch5.eth[0].bitrate = 1000Mbps
*.switch5.eth[1].bitrate = 1200Mbps
*.switch5.eth[2].bitrate = 2200Mbps
*.switch5.eth[3].bitrate = 1800Mbps
*.switch5.eth[4].bitrate = 1400Mbps
*.switch5.eth[5].bitrate = 1200Mbps
*.switch5.eth[6].bitrate = 1600Mbps
*.switch5.eth[7].bitrate = 2300Mbps
*.switch5.eth[8].bitrate = 1200Mbps
*.switch5.eth[9].bitrate = 1400Mbps
*.switch5.eth[10].bitrate = 1700Mbps
*.switch5.eth[11].bitrate = 1900Mbps
*.switch5.eth[12].bitrate = 2000Mbps
*.switch5.eth[13].bitrate = 2000Mbps
*.switch5.eth[14].bitrate = 1200Mbps
*.switch5.eth[15].bitrate = 2100Mbps
*.switch5.eth[16].bitrate = 2100Mbps
*.switch5.eth[17].bitrate = 2100Mbps
*.switch5.eth[18].bitrate = 1400Mbps
*.switch5.eth[19].bitrate = 2300Mbps
*.switch5.eth[20].bitrate = 2200Mbps
*.switch5.eth[21].bitrate = 2400Mbps
*.switch5.eth[22].bitrate = 1800Mbps
*.host6.eth[0].bitrate = 1000Mbps
*.switch6.eth[0].bitrate = 1000Mbps
*.switch6.eth[1].bitrate = 1400Mbps
*.switch6.eth[2].bitrate = 1300Mbps
*.switch6.eth[3].bitrate = 1600Mbps
*.switch6.eth[4].bitrate = 1200Mbps
*.switch6.eth[5].bitrate = 1800Mbps
*.switch6.eth[6].bitrate = 2000Mbps
*.switch6.eth[7].bitrate = 2000Mbps
*.switch6.eth[8].bitrate = 2200Mbps
*.switch6.eth[9].bitrate = 2200Mbps
*.switch6.eth[10].bitrate = 2100Mbps
*.switch6.eth[11].bitrate = 1300Mbps
*.switch6.eth[12].bitrate = 2000Mbps
*.switch6.eth[13].bitrate = 1600Mbps
*.switch6.eth[14].bitrate = 2300Mbps
*.switch6.eth[15].bitrate = 1200Mbps
*.switch6.eth[16].bitrate = 2300Mbps
*.switch6.eth[17].bitrate = 1200Mbps
*.switch6.eth[18].bitrate = 2100Mbps
*.switch6.eth[19].bitrate = 1900Mbps
*.switch6.eth[20].bitrate = 2100Mbps
*.switch6.eth[21].bitrate = 2300Mbps
*.switch6.eth[22].bitrate = 1500Mbps
*.switch6.eth[23].bitrate = 1500Mbps
*.switch6.eth[24].bitrate = 2400Mbps
*.host7.eth[0].bitrate = 1000Mbps
*.switch7.eth[0].bitrate = 1000Mbps
*.switch7.eth[1].bitrate = 1500Mbps
*.switch7.eth[2].bitrate = 1300Mbps
*.switch7.eth[3].bitrate = 1700Mbps
*.switch7.eth[4].bitrate = 2200Mbps
*.switch7.eth[5].bitrate = 1700Mbps
*.switch7.eth[6].bitrate = 2000Mbps
*.switch7.eth[7].bitrate = 1800Mbps
*.switch7.eth[8].bitrate = 1600Mbps
*.switch7.eth[9].bitrate = 1900Mbps
*.switch7.eth[10].bitrate = 2100Mbps
*.switch7.eth[11].bitrate = 2100Mbps
*.switch7.eth[12].bitrate = 1400Mbps
*.switch7.eth[13].bitrate = 1700Mbps
*.switch7.eth[14].bitrate = 2100Mbps
*.switch7.eth[15].bitrate = 1600Mbps
*.switch7.eth[16].bitrate = 1500Mbps
*.switch7.eth[17].bitrate = 2300Mbps
*.switch7.eth[18].bitrate = 1200Mbps
*.switch7.eth[19].bitrate = 2400Mbps
*.switch7.eth[20].bitrate = 1200Mbps
*.host8.eth[0].bitrate = 1000Mbps
*.switch8.eth[0].bitrate = 1000Mbps
*.switch8.eth[1].bitrate = 1400Mbps
*.switch8.eth[2].bitrate = 1500Mbps
*.switch8.eth[3].bitrate = 2000Mbps
*.switch8.eth[4].bitrate = 1400Mbps
*.switch8.eth[5].bitrate = 2200Mbps
*.switch8.eth[6].bitrate = 2300Mbps
*.switch8.eth[7].bitrate = 1400Mbps
*.switch8.eth[8].bitrate = 1900Mbps
*.switch8.eth[9].bitrate = 1400Mbps
*.switch8.eth[10].bitrate = 2100Mbps
*.switch8.eth[11].bitrate = 1900Mbps
*.switch8.eth[12].bitrate = 2300Mbps
*.switch8.eth[13].bitrate = 2200Mbps
*.switch8.eth[14].bitrate = 2400Mbps
*.switch8.eth[15].bitrate = 1600Mbps
*.switch8.eth[16].bitrate = 1800Mbps
*.switch8.eth[17].bitrate = 1700Mbps
*.switch8.eth[18].bitrate = 1900Mbps
*.switch8.eth[19].bitrate = 1500Mbps
*.switch8.eth[20].bitrate = 1900Mbps
*.switch8.eth[21].bitrate = 2100Mbps
*.switch8.eth[22].bitrate = 2000Mbps
*.switch8.eth[23].bitrate = 1500Mbps
*.switch8.eth[24].bitrate = 1900Mbps
*.switch8.eth[25].bitrate = 1600Mbps
*.switch8.eth[26].bitrate = 1400Mbps
*.switch8.eth[27].bitrate = 2400Mbps
*.switch8.eth[28].bitrate = 2100Mbps
*.switch8.eth[29].bitrate = 2200Mbps
*.host9.eth[0].bitrate = 1000Mbps
*.switch9.eth[0].bitrate = 1000Mbps
*.switch9.eth[1].bitrate = 2300Mbps
*.switch9.eth[2].bitrate = 2000Mbps
*.switch9.eth[3].bitrate = 2400Mbps
*.switch9.eth[4].bitrate = 2100Mbps
*.switch9.eth[5].bitrate = 2200Mbps
*.switch9.eth[6].bitrate = 1600Mbps
*.switch9.eth[7].bitrate = 1700Mbps
*.switch9.eth[8].bitrate = 2100Mbps
*.switch9.eth[9].bitrate = 2000Mbps
*.switch9.eth[10].bitrate = 1200Mbps
*.switch9.eth[11].bitrate = 1200Mbps
*.switch9.eth[12].bitrate = 1300Mbps
*.switch9.eth[13].bitrate = 2400Mbps
*.host10.eth[0].bitrate = 1000Mbps
*.switch10.eth[0].bitrate = 1000Mbps
*.switch10.eth[1].bitrate = 1800Mbps
*.switch10.eth[2].bitrate = 1200Mbps
*.switch10.eth[3].bitrate = 1700Mbps
*.switch10.eth[4].bitrate = 1300Mbps
*.switch10.eth[5].bitrate = 1400Mbps
*.switch10.eth[6].bitrate = 2400Mbps
*.switch10.eth[7].bitrate = 1400Mbps
*.switch10.eth[8].bitrate = 1500Mbps
*.switch10.eth[9].bitrate = 1700Mbps
*.switch10.eth[10].bitrate = 1900Mbps
*.switch10.eth[11].bitrate = 1600Mbps
*.switch10.eth[12].bitrate = 2300Mbps
*.host11.eth[0].bitrate = 1000Mbps
*.switch11.eth[0].bitrate = 1000Mbps
*.switch11.eth[1].bitrate = 1600Mbps
*.switch11.eth[2].bitrate = 1400Mbps
*.switch11.eth[3].bitrate = 1900Mbps
*.switch11.eth[4].bitrate = 2000Mbps
*.switch11.eth[5].bitrate = 1600Mbps
*.switch11.eth[6].bitrate = 2200Mbps
*.switch11.eth[7].bitrate = 2200Mbps
*.switch11.eth[8].bitrate = 2000Mbps
*.switch11.eth[9].bitrate = 2100Mbps
*.switch11.eth[10].bitrate = 1200Mbps
*.switch11.eth[11].bitrate = 1900Mbps
*.switch11.eth[12].bitrate = 2000Mbps
*.switch11.eth[13].bitrate = 1700Mbps
*.switch11.eth[14].bitrate = 1500Mbps
*.switch11.eth[15].bitrate = 1800Mbps
*.switch11.eth[16].bitrate = 2300Mbps
*.switch11.eth[17].bitrate = 1700Mbps
*.switch11.eth[18].bitrate = 2400Mbps
*.switch11.eth[19].bitrate = 1700Mbps
*.switch11.eth[20].bitrate = 1600Mbps
*.host12.eth[0].bitrate = 1000Mbps
*.switch12.eth[0].bitrate = 1000Mbps
*.switch12.eth[1].bitrate = 1700Mbps
*.switch12.eth[2].bitrate = 2000Mbps
*.switch12.eth[3].bitrate = 2000Mbps
*.switch12.eth[4].bitrate = 2000Mbps
*.switch12.eth[5].bitrate = 1600Mbps
*.switch12.eth[6].bitrate = 1700Mbps
*.switch12.eth[7].bitrate = 1800Mbps
*.switch12.eth[8].bitrate = 1500Mbps
*.switch12.eth[9].bitrate = 1900Mbps
*.switch12.eth[10].bitrate = 1400Mbps
*.switch12.eth[11].bitrate = 2300Mbps
*.switch12.eth[12].bitrate = 1200Mbps
*.switch12.eth[13].bitrate = 2400Mbps
*.switch12.eth[14].bitrate = 1900Mbps
*.switch12.eth[15].bitrate = 1600Mbps
*.switch12.eth[16].bitrate = 2000Mbps
*.host13.eth[0].bitrate = 1000Mbps
*.switch13.eth[0].bitrate = 1000Mbps
*.switch13.eth[1].bitrate = 1600Mbps
*.switch13.eth[2].bitrate = 1700Mbps
*.switch13.eth[3].bitrate = 1600Mbps
*.switch13.eth[4].bitrate = 2000Mbps
*.switch13.eth[5].bitrate = 2300Mbps
*.switch13.eth[6].bitrate = 1700Mbps
*.switch13.eth[7].bitrate = 1700Mbps
*.switch13.eth[8].bitrate = 1800Mbps
*.switch13.eth[9].bitrate = 2000Mbps
*.switch13.eth[10].bitrate = 1600Mbps
*.switch13.eth[11].bitrate = 1900Mbps
*.switch13.eth[12].bitrate = 1800Mbps
*.switch13.eth[13].bitrate = 2100Mbps
*.switch13.eth[14].bitrate = 1200Mbps
*.switch13.eth[15].bitrate = 1900Mbps
*.host14.eth[0].bitrate = 1000Mbps
*.switch14.eth[0].bitrate = 1000Mbps
*.switch14.eth[1].bitrate = 1800Mbps
*.switch14.eth[2].bitrate = 1200Mbps
*.switch14.eth[3].bitrate = 2100Mbps
*.switch14.eth[4].bitrate = 1900Mbps
*.switch14.eth[5].bitrate = 2200Mbps
*.switch14.eth[6].bitrate = 1300Mbps
*.switch14.eth[7].bitrate = 2400Mbps
*.switch14.eth[8].bitrate = 2400Mbps
*.host15.eth[0].bitrate = 1000Mbps
*.switch15.eth[0].bitrate = 1000Mbps
*.switch15.eth[1].bitrate = 1700Mbps
*.switch15.eth[2].bitrate = 1500Mbps
*.switch15.eth[3].bitrate = 1200Mbps
*.switch15.eth[4].bitrate = 1600Mbps
*.switch15.eth[5].bitrate = 1200Mbps
*.switch15.eth[6].bitrate = 2400Mbps
*.switch15.eth[7].bitrate = 1300Mbps
*.switch15.eth[8].bitrate = 2400Mbps
*.switch15.eth[9].bitrate = 2400Mbps
*.switch15.eth[10].bitrate = 1400Mbps
*.switch15.eth[11].bitrate = 1200Mbps
*.switch15.eth[12].bitrate = 1900Mbps
*.switch15.eth[13].bitrate = 1700Mbps
*.switch15.eth[14].bitrate = 1600Mbps
*.switch15.eth[15].bitrate = 1800Mbps
*.switch15.eth[16].bitrate = 2400Mbps
*.switch15.eth[17].bitrate = 1700Mbps
*.switch15.eth[18].bitrate = 1900Mbps
*.switch15.eth[19].bitrate = 1300Mbps
*.switch15.eth[20].bitrate = 2400Mbps
*.switch15.eth[21].bitrate = 2300Mbps
*.switch15.eth[22].bitrate = 2300Mbps
*.switch15.eth[23].bitrate = 1500Mbps
*.host16.eth[0].bitrate = 1000Mbps
*.switch16.eth[0].bitrate = 1000Mbps
*.switch16.eth[1].bitrate = 2200Mbps
*.switch16.eth[2].bitrate = 2100Mbps
*.switch16.eth[3].bitrate = 2200Mbps
*.switch16.eth[4].bitrate = 1600Mbps
*.switch16.eth[5].bitrate = 1200Mbps
*.switch16.eth[6].bitrate = 1900Mbps
*.switch16.eth[7].bitrate = 2100Mbps
*.switch16.eth[8].bitrate = 2300Mbps
*.switch16.eth[9].bitrate = 1700Mbps
*.switch16.eth[10].bitrate = 1200Mbps
*.switch16.eth[11].bitrate = 1200Mbps
*.switch16.eth[12].bitrate = 2200Mbps
*.switch16.eth[13].bitrate = 1300Mbps
*.switch16.eth[14].bitrate = 2400Mbps
*.switch16.eth[15].bitrate = 2300Mbps
*.switch16.eth[16].bitrate = 1200Mbps
*.switch16.eth[17].bitrate = 2400Mbps
*.switch16.eth[18].bitrate = 1300Mbps
*.switch16.eth[19].bitrate = 1600Mbps
*.switch16.eth[20].bitrate = 1600Mbps
*.switch16.eth[21].bitrate = 2000Mbps
*.switch16.eth[22].bitrate = 2100Mbps
*.switch16.eth[23].bitrate = 2300Mbps
*.switch16.eth[24].bitrate = 2000Mbps
*.switch16.eth[25].bitrate = 1800Mbps
*.switch16.eth[26].bitrate = 1300Mbps
*.switch16.eth[27].bitrate = 2000Mbps
*.switch16.eth[28].bitrate = 1400Mbps
*.host17.eth[0].bitrate = 1000Mbps
*.switch17.eth[0].bitrate = 1000Mbps
*.switch17.eth[1].bitrate = 2200Mbps
*.switch17.eth[2].bitrate = 1800Mbps
*.switch17.eth[3].bitrate = 1500Mbps
*.switch17.eth[4].bitrate = 1800Mbps
*.switch17.eth[5].bitrate = 2300Mbps
*.switch17.eth[6].bitrate = 1600Mbps
*.switch17.eth[7].bitrate = 2100Mbps
*.switch17.eth[8].bitrate = 1700Mbps
*.switch17.eth[9].bitrate = 1900Mbps
*.switch17.eth[10].bitrate = 2000Mbps
*.switch17.eth[11].bitrate = 2400Mbps
*.switch17.eth[12].bitrate = 2300Mbps
*.switch17.eth[13].bitrate = 1500Mbps
*.switch17.eth[14].bitrate = 2300Mbps
*.switch17.eth[15].bitrate = 1300Mbps
*.switch17.eth[16].bitrate = 1400Mbps
*.host18.eth[0].bitrate = 1000Mbps
*.switch18.eth[0].bitrate = 1000Mbps
*.switch18.eth[1].bitrate = 1200Mbps
*.switch18.eth[2].bitrate = 1200Mbps
*.switch18.eth[3].bitrate = 2100Mbps
*.switch18.eth[4].bitrate = 1200Mbps
*.switch18.eth[5].bitrate = 1500Mbps
*.switch18.eth[6].bitrate = 1900Mbps
*.switch18.eth[7].bitrate = 1300Mbps
*.switch18.eth[8].bitrate = 1300Mbps
*.switch18.eth[9].bitrate = 1800Mbps
*.switch18.eth[10].bitrate = 2300Mbps
*.switch18.eth[11].bitrate = 1700Mbps
*.switch18.eth[12].bitrate = 1300Mbps
*.switch18.eth[13].bitrate = 1800Mbps
*.switch18.eth[14].bitrate = 1500Mbps
*.switch18.eth[15].bitrate = 2100Mbps
*.switch18.eth[16].bitrate = 2400Mbps
*.switch18.eth[17].bitrate = 1200Mbps
*.switch18.eth[18].bitrate = 2400Mbps
*.switch18.eth[19].bitrate = 2300Mbps
*.switch18.eth[20].bitrate = 2000Mbps
*.switch18.eth[21].bitrate = 1300Mbps
*.host19.eth[0].bitrate = 1000Mbps
*.switch19.eth[0].bitrate = 1000Mbps
*.switch19.eth[1].bitrate = 2400Mbps
*.switch19.eth[2].bitrate = 1900Mbps
*.switch19.eth[3].bitrate = 2400Mbps
*.switch19.eth[4].bitrate = 2000Mbps
*.switch19.eth[5].bitrate = 1900Mbps
*.switch19.eth[6].bitrate = 2400Mbps
*.switch19.eth[7].bitrate = 1300Mbps
*.switch19.eth[8].bitrate = 1300Mbps
*.switch19.eth[9].bitrate = 1300Mbps
*.switch19.eth[10].bitrate = 2300Mbps
*.switch19.eth[11].bitrate = 1400Mbps
*.switch19.eth[12].bitrate = 2400Mbps
*.switch19.eth[13].bitrate = 2200Mbps
*.switch19.eth[14].bitrate = 1900Mbps
*.switch19.eth[15].bitrate = 1500Mbps
*.switch19.eth[16].bitrate = 1400Mbps
*.switch19.eth[17].bitrate = 1400Mbps
*.host0.numApps = 9
*.host0.app[0].typename = "UdpSourceApp"
*.host0.app[0].io.destAddress = "host14"
*.host0.app[0].source.packetNameFormat = "%M-%m-%c"
*.host0.app[0].source.displayStringTextFormat = "sent %p pk (%l)"
*.host0.app[0].source.packetLength = 14B
*.host0.app[0].source.productionInterval = 1ms
*.host0.app[0].display-name = "type1_3"
*.host0.app[0].io.destPort = 1000
*.host0.app[1].typename = "UdpSinkApp"
*.host0.app[1].io.localPort = 1000
*.host0.app[2].typename = "UdpSinkApp"
*.host0.app[2].io.localPort = 1001
*.host0.app[3].typename = "UdpSinkApp"
*.host0.app[3].io.localPort = 1002
*.host0.app[4].typename = "UdpBasicApp"
*.host0.app[4].destAddresses = "host13"
*.host0.app[4].source.packetNameFormat = "%M-%m-%c"
*.host0.app[4].source.displayStringTextFormat = "sent %p pk (%l)"
*.host0.app[4].messageLength = 13B
*.host0.app[4].sendInterval = 1ms
*.host0.app[4].startTime = 1ms
*.host0.app[4].stopTime = 11ms
*.host0.app[4].display-name = "type2_31"
*.host0.app[4].destPort = 1004
*.host0.app[5].typename = "UdpBasicApp"
*.host0.app[5].destAddresses = "host13"
*.host0.app[5].source.packetNameFormat = "%M-%m-%c"
*.host0.app[5].source.displayStringTextFormat = "sent %p pk (%l)"
*.host0.app[5].messageLength = 13B
*.host0.app[5].sendInterval = 1ms
*.host0.app[5].startTime = 17ms
*.host0.app[5].stopTime = 26ms
*.host0.app[5].display-name = "type2_31"
*.host0.app[5].destPort = 1004
*.host0.app[6].typename = "UdpBasicApp"
*.host0.app[6].destAddresses = "host13"
*.host0.app[6].source.packetNameFormat = "%M-%m-%c"
*.host0.app[6].source.displayStringTextFormat = "sent %p pk (%l)"
*.host0.app[6].messageLength = 13B
*.host0.app[6].sendInterval = 1ms
*.host0.app[6].startTime = 27ms
*.host0.app[6].stopTime = 31ms
*.host0.app[6].display-name = "type2_31"
*.host0.app[6].destPort = 1004
*.host0.app[7].typename = "UdpBasicApp"
*.host0.app[7].destAddresses = "host13"
*.host0.app[7].source.packetNameFormat = "%M-%m-%c"
*.host0.app[7].source.displayStringTextFormat = "sent %p pk (%l)"
*.host0.app[7].messageLength = 13B
*.host0.app[7].sendInterval = 1ms
*.host0.app[7].startTime = 51ms
*.host0.app[7].stopTime = 66ms
*.host0.app[7].display-name = "type2_31"
*.host0.app[7].destPort = 1004
*.host0.app[8].typename = "UdpBasicApp"
*.host0.app[8].destAddresses = "host13"
*.host0.app[8].source.packetNameFormat = "%M-%m-%c"
*.host0.app[8].source.displayStringTextFormat = "sent %p pk (%l)"
*.host0.app[8].messageLength = 13B
*.host0.app[8].sendInterval = 1ms
*.host0.app[8].startTime = 90ms
*.host0.app[8].stopTime = 100ms
*.host0.app[8].display-name = "type2_31"
*.host0.app[8].destPort = 1004
*.host1.numApps = 23
*.host1.app[0].typename = "UdpSinkApp"
*.host1.app[0].io.localPort = 1000
*.host1.app[1].typename = "UdpBasicApp"
*.host1.app[1].destAddresses = "host4"
*.host1.app[1].source.packetNameFormat = "%M-%m-%c"
*.host1.app[1].source.displayStringTextFormat = "sent %p pk (%l)"
*.host1.app[1].messageLength = 19B
*.host1.app[1].sendInterval = 1ms
*.host1.app[1].startTime = 6ms
*.host1.app[1].stopTime = 13ms
*.host1.app[1].display-name = "type2_0"
*.host1.app[1].destPort = 1000
*.host1.app[2].typename = "UdpBasicApp"
*.host1.app[2].destAddresses = "host4"
*.host1.app[2].source.packetNameFormat = "%M-%m-%c"
*.host1.app[2].source.displayStringTextFormat = "sent %p pk (%l)"
*.host1.app[2].messageLength = 19B
*.host1.app[2].sendInterval = 1ms
*.host1.app[2].startTime = 16ms
*.host1.app[2].stopTime = 33ms
*.host1.app[2].display-name = "type2_0"
*.host1.app[2].destPort = 1000
*.host1.app[3].typename = "UdpBasicApp"
*.host1.app[3].destAddresses = "host4"
*.host1.app[3].source.packetNameFormat = "%M-%m-%c"
*.host1.app[3].source.displayStringTextFormat = "sent %p pk (%l)"
*.host1.app[3].messageLength = 19B
*.host1.app[3].sendInterval = 1ms
*.host1.app[3].startTime = 51ms
*.host1.app[3].stopTime = 52ms
*.host1.app[3].display-name = "type2_0"
*.host1.app[3].destPort = 1000
*.host1.app[4].typename = "UdpBasicApp"
*.host1.app[4].destAddresses = "host4"
*.host1.app[4].source.packetNameFormat = "%M-%m-%c"
*.host1.app[4].source.displayStringTextFormat = "sent %p pk (%l)"
*.host1.app[4].messageLength = 19B
*.host1.app[4].sendInterval = 1ms
*.host1.app[4].startTime = 55ms
*.host1.app[4].stopTime = 83ms
*.host1.app[4].display-name = "type2_0"
*.host1.app[4].destPort = 1000
*.host1.app[5].typename = "UdpBasicApp"
*.host1.app[5].destAddresses = "host4"
*.host1.app[5].source.packetNameFormat = "%M-%m-%c"
*.host1.app[5].source.displayStringTextFormat = "sent %p pk (%l)"
*.host1.app[5].messageLength = 19B
*.host1.app[5].sendInterval = 1ms
*.host1.app[5].startTime = 85ms
*.host1.app[5].stopTime = 97ms
*.host1.app[5].display-name = "type2_0"
*.host1.app[5].destPort = 1000
*.host1.app[6].typename = "UdpSinkApp"
*.host1.app[6].io.localPort = 1001
*.host1.app[7].typename = "UdpBasicApp"
*.host1.app[7].destAddresses = "host19"
*.host1.app[7].source.packetNameFormat = "%M-%m-%c"
*.host1.app[7].source.displayStringTextFormat = "sent %p pk (%l)"
*.host1.app[7].messageLength = 13B
*.host1.app[7].sendInterval = 1ms
*.host1.app[7].startTime = 3ms
*.host1.app[7].stopTime = 5ms
*.host1.app[7].display-name = "type2_10"
*.host1.app[7].destPort = 1001
*.host1.app[8].typename = "UdpBasicApp"
*.host1.app[8].destAddresses = "host19"
*.host1.app[8].source.packetNameFormat = "%M-%m-%c"
*.host1.app[8].source.displayStringTextFormat = "sent %p pk (%l)"
*.host1.app[8].messageLength = 13B
*.host1.app[8].sendInterval = 1ms
*.host1.app[8].startTime = 15ms
*.host1.app[8].stopTime = 17ms
*.host1.app[8].display-name = "type2_10"
*.host1.app[8].destPort = 1001
*.host1.app[9].typename = "UdpBasicApp"
*.host1.app[9].destAddresses = "host19"
*.host1.app[9].source.packetNameFormat = "%M-%m-%c"
*.host1.app[9].source.displayStringTextFormat = "sent %p pk (%l)"
*.host1.app[9].messageLength = 13B
*.host1.app[9].sendInterval = 1ms
*.host1.app[9].startTime = 30ms
*.host1.app[9].stopTime = 40ms
*.host1.app[9].display-name = "type2_10"
*.host1.app[9].destPort = 1001
*.host1.app[10].typename = "UdpBasicApp"
*.host1.app[10].destAddresses = "host19"
*.host1.app[10].source.packetNameFormat = "%M-%m-%c"
*.host1.app[10].source.displayStringTextFormat = "sent %p pk (%l)"
*.host1.app[10].messageLength = 13B
*.host1.app[10].sendInterval = 1ms
*.host1.app[10].startTime = 43ms
*.host1.app[10].stopTime = 46ms
*.host1.app[10].display-name = "type2_10"
*.host1.app[10].destPort = 1001
*.host1.app[11].typename = "UdpBasicApp"
*.host1.app[11].destAddresses = "host19"
*.host1.app[11].source.packetNameFormat = "%M-%m-%c"
*.host1.app[11].source.displayStringTextFormat = "sent %p pk (%l)"
*.host1.app[11].messageLength = 13B
*.host1.app[11].sendInterval = 1ms
*.host1.app[11].startTime = 47ms
*.host1.app[11].stopTime = 48ms
*.host1.app[11].display-name = "type2_10"
*.host1.app[11].destPort = 1001
*.host1.app[12].typename = "UdpBasicApp"
*.host1.app[12].destAddresses = "host19"
*.host1.app[12].source.packetNameFormat = "%M-%m-%c"
*.host1.app[12].source.displayStringTextFormat = "sent %p pk (%l)"
*.host1.app[12].messageLength = 13B
*.host1.app[12].sendInterval = 1ms
*.host1.app[12].startTime = 57ms
*.host1.app[12].stopTime = 59ms
*.host1.app[12].display-name = "type2_10"
*.host1.app[12].destPort = 1001
*.host1.app[13].typename = "UdpBasicApp"
*.host1.app[13].destAddresses = "host19"
*.host1.app[13].source.packetNameFormat = "%M-%m-%c"
*.host1.app[13].source.displayStringTextFormat = "sent %p pk (%l)"
*.host1.app[13].messageLength = 13B
*.host1.app[13].sendInterval = 1ms
*.host1.app[13].startTime = 68ms
*.host1.app[13].stopTime = 78ms
*.host1.app[13].display-name = "type2_10"
*.host1.app[13].destPort = 1001
*.host1.app[14].typename = "UdpBasicApp"
*.host1.app[14].destAddresses = "host19"
*.host1.app[14].source.packetNameFormat = "%M-%m-%c"
*.host1.app[14].source.displayStringTextFormat = "sent %p pk (%l)"
*.host1.app[14].messageLength = 13B
*.host1.app[14].sendInterval = 1ms
*.host1.app[14].startTime = 86ms
*.host1.app[14].stopTime = 100ms
*.host1.app[14].display-name = "type2_10"
*.host1.app[14].destPort = 1001
*.host1.app[15].typename = "UdpBasicApp"
*.host1.app[15].destAddresses = "host15"
*.host1.app[15].source.packetNameFormat = "%M-%m-%c"
*.host1.app[15].source.displayStringTextFormat = "sent %p pk (%l)"
*.host1.app[15].messageLength = 15B
*.host1.app[15].sendInterval = 1ms
*.host1.app[15].startTime = 0ms
*.host1.app[15].stopTime = 1ms
*.host1.app[15].display-name = "type2_17"
*.host1.app[15].destPort = 1003
*.host1.app[16].typename = "UdpBasicApp"
*.host1.app[16].destAddresses = "host15"
*.host1.app[16].source.packetNameFormat = "%M-%m-%c"
*.host1.app[16].source.displayStringTextFormat = "sent %p pk (%l)"
*.host1.app[16].messageLength = 15B
*.host1.app[16].sendInterval = 1ms
*.host1.app[16].startTime = 3ms
*.host1.app[16].stopTime = 18ms
*.host1.app[16].display-name = "type2_17"
*.host1.app[16].destPort = 1003
*.host1.app[17].typename = "UdpBasicApp"
*.host1.app[17].destAddresses = "host15"
*.host1.app[17].source.packetNameFormat = "%M-%m-%c"
*.host1.app[17].source.displayStringTextFormat = "sent %p pk (%l)"
*.host1.app[17].messageLength = 15B
*.host1.app[17].sendInterval = 1ms
*.host1.app[17].startTime = 22ms
*.host1.app[17].stopTime = 36ms
*.host1.app[17].display-name = "type2_17"
*.host1.app[17].destPort = 1003
*.host1.app[18].typename = "UdpBasicApp"
*.host1.app[18].destAddresses = "host15"
*.host1.app[18].source.packetNameFormat = "%M-%m-%c"
*.host1.app[18].source.displayStringTextFormat = "sent %p pk (%l)"
*.host1.app[18].messageLength = 15B
*.host1.app[18].sendInterval = 1ms
*.host1.app[18].startTime = 37ms
*.host1.app[18].stopTime = 40ms
*.host1.app[18].display-name = "type2_17"
*.host1.app[18].destPort = 1003
*.host1.app[19].typename = "UdpBasicApp"
*.host1.app[19].destAddresses = "host15"
*.host1.app[19].source.packetNameFormat = "%M-%m-%c"
*.host1.app[19].source.displayStringTextFormat = "sent %p pk (%l)"
*.host1.app[19].messageLength = 15B
*.host1.app[19].sendInterval = 1ms
*.host1.app[19].startTime = 46ms
*.host1.app[19].stopTime = 51ms
*.host1.app[19].display-name = "type2_17"
*.host1.app[19].destPort = 1003
*.host1.app[20].typename = "UdpBasicApp"
*.host1.app[20].destAddresses = "host15"
*.host1.app[20].source.packetNameFormat = "%M-%m-%c"
*.host1.app[20].source.displayStringTextFormat = "sent %p pk (%l)"
*.host1.app[20].messageLength = 15B
*.host1.app[20].sendInterval = 1ms
*.host1.app[20].startTime = 61ms
*.host1.app[20].stopTime = 78ms
*.host1.app[20].display-name = "type2_17"
*.host1.app[20].destPort = 1003
*.host1.app[21].typename = "UdpBasicApp"
*.host1.app[21].destAddresses = "host15"
*.host1.app[21].source.packetNameFormat = "%M-%m-%c"
*.host1.app[21].source.displayStringTextFormat = "sent %p pk (%l)"
*.host1.app[21].messageLength = 15B
*.host1.app[21].sendInterval = 1ms
*.host1.app[21].startTime = 82ms
*.host1.app[21].stopTime = 84ms
*.host1.app[21].display-name = "type2_17"
*.host1.app[21].destPort = 1003
*.host1.app[22].typename = "UdpBasicApp"
*.host1.app[22].destAddresses = "host15"
*.host1.app[22].source.packetNameFormat = "%M-%m-%c"
*.host1.app[22].source.displayStringTextFormat = "sent %p pk (%l)"
*.host1.app[22].messageLength = 15B
*.host1.app[22].sendInterval = 1ms
*.host1.app[22].startTime = 88ms
*.host1.app[22].stopTime = 100ms
*.host1.app[22].display-name = "type2_17"
*.host1.app[22].destPort = 1003
*.host2.numApps = 7
*.host2.app[0].typename = "UdpSourceApp"
*.host2.app[0].io.destAddress = "host13"
*.host2.app[0].source.packetNameFormat = "%M-%m-%c"
*.host2.app[0].source.displayStringTextFormat = "sent %p pk (%l)"
*.host2.app[0].source.packetLength = 12B
*.host2.app[0].source.productionInterval = 1ms
*.host2.app[0].display-name = "type1_4"
*.host2.app[0].io.destPort = 1002
*.host2.app[1].typename = "UdpBasicApp"
*.host2.app[1].destAddresses = "host0"
*.host2.app[1].source.packetNameFormat = "%M-%m-%c"
*.host2.app[1].source.displayStringTextFormat = "sent %p pk (%l)"
*.host2.app[1].messageLength = 22B
*.host2.app[1].sendInterval = 1ms
*.host2.app[1].startTime = 1ms
*.host2.app[1].stopTime = 10ms
*.host2.app[1].display-name = "type2_24"
*.host2.app[1].destPort = 1002
*.host2.app[2].typename = "UdpBasicApp"
*.host2.app[2].destAddresses = "host0"
*.host2.app[2].source.packetNameFormat = "%M-%m-%c"
*.host2.app[2].source.displayStringTextFormat = "sent %p pk (%l)"
*.host2.app[2].messageLength = 22B
*.host2.app[2].sendInterval = 1ms
*.host2.app[2].startTime = 36ms
*.host2.app[2].stopTime = 42ms
*.host2.app[2].display-name = "type2_24"
*.host2.app[2].destPort = 1002
*.host2.app[3].typename = "UdpBasicApp"
*.host2.app[3].destAddresses = "host0"
*.host2.app[3].source.packetNameFormat = "%M-%m-%c"
*.host2.app[3].source.displayStringTextFormat = "sent %p pk (%l)"
*.host2.app[3].messageLength = 22B
*.host2.app[3].sendInterval = 1ms
*.host2.app[3].startTime = 55ms
*.host2.app[3].stopTime = 56ms
*.host2.app[3].display-name = "type2_24"
*.host2.app[3].destPort = 1002
*.host2.app[4].typename = "UdpBasicApp"
*.host2.app[4].destAddresses = "host0"
*.host2.app[4].source.packetNameFormat = "%M-%m-%c"
*.host2.app[4].source.displayStringTextFormat = "sent %p pk (%l)"
*.host2.app[4].messageLength = 22B
*.host2.app[4].sendInterval = 1ms
*.host2.app[4].startTime = 65ms
*.host2.app[4].stopTime = 67ms
*.host2.app[4].display-name = "type2_24"
*.host2.app[4].destPort = 1002
*.host2.app[5].typename = "UdpBasicApp"
*.host2.app[5].destAddresses = "host0"
*.host2.app[5].source.packetNameFormat = "%M-%m-%c"
*.host2.app[5].source.displayStringTextFormat = "sent %p pk (%l)"
*.host2.app[5].messageLength = 22B
*.host2.app[5].sendInterval = 1ms
*.host2.app[5].startTime = 70ms
*.host2.app[5].stopTime = 78ms
*.host2.app[5].display-name = "type2_24"
*.host2.app[5].destPort = 1002
*.host2.app[6].typename = "UdpBasicApp"
*.host2.app[6].destAddresses = "host0"
*.host2.app[6].source.packetNameFormat = "%M-%m-%c"
*.host2.app[6].source.displayStringTextFormat = "sent %p pk (%l)"
*.host2.app[6].messageLength = 22B
*.host2.app[6].sendInterval = 1ms
*.host2.app[6].startTime = 95ms
*.host2.app[6].stopTime = 100ms
*.host2.app[6].display-name = "type2_24"
*.host2.app[6].destPort = 1002