[General]
network = TSN_multipath
sim-time-limit = 100ms
*.macForwardingTableConfigurator.typename = ""
*.*.hasStreamRedundancy = true
*.*.bridging.streamRelay.typename = "StreamRelayLayer"
*.*.bridging.streamCoder.typename = "StreamCoderLayer"
*.streamRedundancyConfigurator.typename = "StreamRedundancyConfigurator"
*.host0.eth[0].bitrate = 1000Mbps
*.switch0.eth[0].bitrate = 1000Mbps
*.switch0.eth[1].bitrate = 1400Mbps
*.switch0.eth[2].bitrate = 2200Mbps
*.switch0.eth[3].bitrate = 1800Mbps
*.switch0.eth[4].bitrate = 1400Mbps
*.switch0.eth[5].bitrate = 1200Mbps
*.switch0.eth[6].bitrate = 1500Mbps
*.switch0.eth[7].bitrate = 1800Mbps
*.switch0.eth[8].bitrate = 1700Mbps
*.switch0.eth[9].bitrate = 2100Mbps
*.switch0.eth[10].bitrate = 2100Mbps
*.switch0.eth[11].bitrate = 2400Mbps
*.switch0.eth[12].bitrate = 2400Mbps
*.switch0.eth[13].bitrate = 1200Mbps
*.switch0.eth[14].bitrate = 2300Mbps
*.switch0.eth[15].bitrate = 1600Mbps
*.switch0.eth[16].bitrate = 1500Mbps
*.switch0.eth[17].bitrate = 2100Mbps
*.switch0.eth[18].bitrate = 1800Mbps
*.switch0.eth[19].bitrate = 2100Mbps
*.switch0.eth[20].bitrate = 2400Mbps
*.switch0.eth[21].bitrate = 2200Mbps
*.switch0.eth[22].bitrate = 2100Mbps
*.switch0.eth[23].bitrate = 1600Mbps
*.switch0.eth[24].bitrate = 1400Mbps
*.switch0.eth[25].bitrate = 1300Mbps
*.switch0.eth[26].bitrate = 2300Mbps
*.switch0.eth[27].bitrate = 2300Mbps
*.switch0.eth[28].bitrate = 2000Mbps
*.switch0.eth[29].bitrate = 2300Mbps
*.switch0.eth[30].bitrate = 2400Mbps
*.switch0.eth[31].bitrate = 2300Mbps
*.switch0.eth[32].bitrate = 1500Mbps
*.switch0.eth[33].bitrate = 2000Mbps
*.switch0.eth[34].bitrate = 2000Mbps
*.switch0.eth[35].bitrate = 2300Mbps
*.switch0.eth[36].bitrate = 1600Mbps
*.switch0.eth[37].bitrate = 1500Mbps
*.switch0.eth[38].bitrate = 1400Mbps
*.host1.eth[0].bitrate = 1000Mbps
*.switch1.eth[0].bitrate = 1000Mbps
*.switch1.eth[1].bitrate = 1400Mbps
*.switch1.eth[2].bitrate = 1600Mbps
*.switch1.eth[3].bitrate = 2300Mbps
*.switch1.eth[4].bitrate = 1500Mbps
*.switch1.eth[5].bitrate = 1900Mbps
*.switch1.eth[6].bitrate = 1300Mbps
*.switch1.eth[7].bitrate = 1600Mbps
*.switch1.eth[8].bitrate = 2100Mbps
*.switch1.eth[9].bitrate = 2100Mbps
*.switch1.eth[10].bitrate = 1300Mbps
*.switch1.eth[11].bitrate = 2100Mbps
*.switch1.eth[12].bitrate = 1200Mbps
*.switch1.eth[13].bitrate = 1600Mbps
*.switch1.eth[14].bitrate = 2200Mbps
*.switch1.eth[15].bitrate = 2000Mbps
*.switch1.eth[16].bitrate = 1800Mbps
*.switch1.eth[17].bitrate = 1700Mbps
*.switch1.eth[18].bitrate = 2200Mbps
*.switch1.eth[19].bitrate = 1200Mbps
*.switch1.eth[20].bitrate = 2000Mbps
*.switch1.eth[21].bitrate = 2400Mbps
*.switch1.eth[22].bitrate = 1800Mbps
*.switch1.eth[23].bitrate = 1900Mbps
*.switch1.eth[24].bitrate = 1500Mbps
*.switch1.eth[25].bitrate = 1500Mbps
*.switch1.eth[26].bitrate = 2300Mbps
*.switch1.eth[27].bitrate = 1300Mbps
*.switch1.eth[28].bitrate = 2400Mbps
*.switch1.eth[29].bitrate = 1200Mbps
*.switch1.eth[30].bitrate = 1900Mbps
*.switch1.eth[31].bitrate = 1800Mbps
*.host2.eth[0].bitrate = 1000Mbps
*.switch2.eth[0].bitrate = 1000Mbps
*.switch2.eth[1].bitrate = 2200Mbps
*.switch2.eth[2].bitrate = 2300Mbps
*.switch2.eth[3].bitrate = 1400Mbps
*.switch2.eth[4].bitrate = 2200Mbps
*.switch2.eth[5].bitrate = 1300Mbps
*.switch2.eth[6].bitrate = 2200Mbps
*.switch2.eth[7].bitrate = 2200Mbps
*.switch2.eth[8].bitrate = 1900Mbps
*.switch2.eth[9].bitrate = 2100Mbps
*.switch2.eth[10].bitrate = 2000Mbps
*.switch2.eth[11].bitrate = 1300Mbps
*.switch2.eth[12].bitrate = 2200Mbps
*.switch2.eth[13].bitrate = 2100Mbps
*.switch2.eth[14].bitrate = 1800Mbps
*.switch2.eth[15].bitrate = 2200Mbps
*.switch2.eth[16].bitrate = 1700Mbps
*.switch2.eth[17].bitrate = 2400Mbps
*.switch2.eth[18].bitrate = 2100Mbps
*.switch2.eth[19].bitrate = 1500Mbps
*.switch2.eth[20].bitrate = 1400Mbps
*.switch2.eth[21].bitrate = 1300Mbps
*.switch2.eth[22].bitrate = 2000Mbps
*.switch2.eth[23].bitrate = 1900Mbps
*.switch2.eth[24].bitrate = 2100Mbps
*.switch2.eth[25].bitrate = 2400Mbps
*.switch2.eth[26].bitrate = 2400Mbps
*.switch2.eth[27].bitrate = 1700Mbps
*.switch2.eth[28].bitrate = 1900Mbps
*.switch2.eth[29].bitrate = 1600Mbps
*.switch2.eth[30].bitrate = 2000Mbps
*.switch2.eth[31].bitrate = 2100Mbps
*.switch2.eth[32].bitrate = 1300Mbps
*.switch2.eth[33].bitrate = 1500Mbps
*.switch2.eth[34].bitrate = 1500Mbps
*.switch2.eth[35].bitrate = 1900Mbps
*.switch2.eth[36].bitrate = 1300Mbps
*.host3.eth[0].bitrate = 1000Mbps
*.switch3.eth[0].bitrate = 1000Mbps
*.switch3.eth[1].bitrate = 1800Mbps
*.switch3.eth[2].bitrate = 1300Mbps
*.switch3.eth[3].bitrate = 1300Mbps
*.switch3.eth[4].bitrate = 1900Mbps
*.switch3.eth[5].bitrate = 2400Mbps
*.switch3.eth[6].bitrate = 1800Mbps
*.switch3.eth[7].bitrate = 1200Mbps
*.switch3.eth[8].bitrate = 1600Mbps
*.switch3.eth[9].bitrate = 2300Mbps
*.switch3.eth[10].bitrate = 2200Mbps
*.switch3.eth[11].bitrate = 1700Mbps
*.switch3.eth[12].bitrate = 1700Mbps
*.switch3.eth[13].bitrate = 1500Mbps
*.switch3.eth[14].bitrate = 1300Mbps
*.switch3.eth[15].bitrate = 1200Mbps
*.switch3.eth[16].bitrate = 1300Mbps
*.switch3.eth[17].bitrate = 2200Mbps
*.switch3.eth[18].bitrate = 2200Mbps
*.switch3.eth[19].bitrate = 2400Mbps
*.switch3.eth[20].bitrate = 1500Mbps
*.switch3.eth[21].bitrate = 1500Mbps
*.switch3.eth[22].bitrate = 2000Mbps
*.switch3.eth[23].bitrate = 2200Mbps
*.switch3.eth[24].bitrate = 2100Mbps
*.host4.eth[0].bitrate = 1000Mbps
*.switch4.eth[0].bitrate = 1000Mbps
*.switch4.eth[1].bitrate = 1400Mbps
*.switch4.eth[2].bitrate = 2200Mbps
*.switch4.eth[3].bitrate = 2300Mbps
*.switch4.eth[4].bitrate = 1200Mbps
*.switch4.eth[5].bitrate = 1500Mbps
*.switch4.eth[6].bitrate = 1200Mbps
*.switch4.eth[7].bitrate = 1800Mbps
*.switch4.eth[8].bitrate = 1700Mbps
*.switch4.eth[9].bitrate = 1800Mbps
*.switch4.eth[10].bitrate = 2400Mbps
*.switch4.eth[11].bitrate = 1400Mbps
*.switch4.eth[12].bitrate = 1800Mbps
*.switch4.eth[13].bitrate = 1200Mbps
*.switch4.eth[14].bitrate = 1400Mbps
*.switch4.eth[15].bitrate = 1200Mbps
*.switch4.eth[16].bitrate = 2000Mbps
*.switch4.eth[17].bitrate = 1600Mbps
*.switch4.eth[18].bitrate = 2100Mbps
*.switch4.eth[19].bitrate = 1500Mbps
*.switch4.eth[20].bitrate = 2100Mbps
*.switch4.eth[21].bitrate = 1200Mbps
*.switch4.eth[22].bitrate = 2200Mbps
*.switch4.eth[23].bitrate = 1200Mbps
*.host5.eth[0].bitrate = 1000Mbps
*.switch5.eth[0].bitrate = 1000Mbps
*.switch5.eth[1].bitrate = 1200Mbps
*.switch5.eth[2].bitrate = 2200Mbps
*.switch5.eth[3].bitrate = 1900Mbps
*.switch5.eth[4].bitrate = 2300Mbps
*.switch5.eth[5].bitrate = 2000Mbps
*.switch5.eth[6].bitrate = 2400Mbps
*.switch5.eth[7].bitrate = 1300Mbps
*.switch5.eth[8].bitrate = 1400Mbps
*.switch5.eth[9].bitrate = 1900Mbps
*.switch5.eth[10].bitrate = 2000Mbps
*.switch5.eth[11].bitrate = 1300Mbps
*.switch5.eth[12].bitrate = 1600Mbps
*.switch5.eth[13].bitrate = 1200Mbps
*.switch5.eth[14].bitrate = 2200Mbps
*.switch5.eth[15].bitrate = 2000Mbps
*.switch5.eth[16].bitrate = 2000Mbps
*.switch5.eth[17].bitrate = 2100Mbps
*.switch5.eth[18].bitrate = 2200Mbps
*.switch5.eth[19].bitrate = 2100Mbps
*.switch5.eth[20].bitrate = 1400Mbps
*.switch5.eth[21].bitrate = 1600Mbps
*.switch5.eth[22].bitrate = 1400Mbps
*.switch5.eth[23].bitrate = 2200Mbps
*.switch5.eth[24].bitrate = 1900Mbps
*.switch5.eth[25].bitrate = 1600Mbps
*.switch5.eth[26].bitrate = 2300Mbps
*.switch5.eth[27].bitrate = 2000Mbps
*.switch5.eth[28].bitrate = 2100Mbps
*.switch5.eth[29].bitrate = 1800Mbps
*.switch5.eth[30].bitrate = 2400Mbps
*.switch5.eth[31].bitrate = 1900Mbps
*.switch5.eth[32].bitrate = 1200Mbps
*.switch5.eth[33].bitrate = 1200Mbps
*.switch5.eth[34].bitrate = 2300Mbps
*.switch5.eth[35].bitrate = 1800Mbps
*.switch5.eth[36].bitrate = 2300Mbps
*.host6.eth[0].bitrate = 1000Mbps
*.switch6.eth[0].bitrate = 1000Mbps
*.switch6.eth[1].bitrate = 1500Mbps
*.switch6.eth[2].bitrate = 1500Mbps
*.switch6.eth[3].bitrate = 1900Mbps
*.switch6.eth[4].bitrate = 2400Mbps
*.switch6.eth[5].bitrate = 1200Mbps
*.switch6.eth[6].bitrate = 1900Mbps
*.switch6.eth[7].bitrate = 2000Mbps
*.switch6.eth[8].bitrate = 2400Mbps
*.switch6.eth[9].bitrate = 2400Mbps
*.switch6.eth[10].bitrate = 1200Mbps
*.switch6.eth[11].bitrate = 2300Mbps
*.switch6.eth[12].bitrate = 2100Mbps
*.switch6.eth[13].bitrate = 2400Mbps
*.switch6.eth[14].bitrate = 2100Mbps
*.switch6.eth[15].bitrate = 2400Mbps
*.switch6.eth[16].bitrate = 1300Mbps
*.switch6.eth[17].bitrate = 1300Mbps
*.switch6.eth[18].bitrate = 1400Mbps
*.switch6.eth[19].bitrate = 2100Mbps
*.switch6.eth[20].bitrate = 2400Mbps
*.switch6.eth[21].bitrate = 1500Mbps
*.switch6.eth[22].bitrate = 1600Mbps
*.switch6.eth[23].bitrate = 2000Mbps
*.switch6.eth[24].bitrate = 2300Mbps
*.switch6.eth[25].bitrate = 2000Mbps
*.switch6.eth[26].bitrate = 1700Mbps
*.switch6.eth[27].bitrate = 1300Mbps
*.switch6.eth[28].bitrate = 1500Mbps
*.switch6.eth[29].bitrate = 2400Mbps
*.switch6.eth[30].bitrate = 1400Mbps
*.switch6.eth[31].bitrate = 2400Mbps
*.switch6.eth[32].bitrate = 1500Mbps
*.switch6.eth[33].bitrate = 1200Mbps
*.switch6.eth[34].bitrate = 1300Mbps
*.switch6.eth[35].bitrate = 1200Mbps
*.host7.eth[0].bitrate = 1000Mbps
*.switch7.eth[0].bitrate = 1000Mbps
*.switch7.eth[1].bitrate = 1800Mbps
*.switch7.eth[2].bitrate = 1900Mbps
*.switch7.eth[3].bitrate = 2100Mbps
*.switch7.eth[4].bitrate = 1800Mbps
*.switch7.eth[5].bitrate = 2000Mbps
*.switch7.eth[6].bitrate = 2100Mbps
*.switch7.eth[7].bitrate = 1800Mbps
*.switch7.eth[8].bitrate = 1700Mbps
*.switch7.eth[9].bitrate = 1300Mbps
*.switch7.eth[10].bitrate = 1200Mbps
*.switch7.eth[11].bitrate = 2000Mbps
*.switch7.eth[12].bitrate = 2300Mbps
*.switch7.eth[13].bitrate = 2000Mbps
*.switch7.eth[14].bitrate = 1800Mbps
*.switch7.eth[15].bitrate = 1700Mbps
*.switch7.eth[16].bitrate = 2300Mbps
*.switch7.eth[17].bitrate = 2400Mbps
*.switch7.eth[18].bitrate = 1900Mbps
*.switch7.eth[19].bitrate = 1700Mbps
*.switch7.eth[20].bitrate = 1800Mbps
*.switch7.eth[21].bitrate = 2000Mbps
*.switch7.eth[22].bitrate = 1500Mbps
*.switch7.eth[23].bitrate = 2100Mbps
*.switch7.eth[24].bitrate = 1500Mbps
*.switch7.eth[25].bitrate = 1800Mbps
*.switch7.eth[26].bitrate = 1700Mbps
*.switch7.eth[27].bitrate = 1200Mbps
*.switch7.eth[28].bitrate = 1300Mbps
*.switch7.eth[29].bitrate = 1600Mbps
*.switch7.eth[30].bitrate = 2400Mbps
*.host8.eth[0].bitrate = 1000Mbps
*.switch8.eth[0].bitrate = 1000Mbps
*.switch8.eth[1].bitrate = 1700Mbps
*.switch8.eth[2].bitrate = 1300Mbps
*.switch8.eth[3].bitrate = 2000Mbps
*.switch8.eth[4].bitrate = 1300Mbps
*.switch8.eth[5].bitrate = 2400Mbps
*.switch8.eth[6].bitrate = 2300Mbps
*.switch8.eth[7].bitrate = 2300Mbps
*.switch8.eth[8].bitrate = 2200Mbps
*.switch8.eth[9].bitrate = 2000Mbps
*.switch8.eth[10].bitrate = 2400Mbps
*.switch8.eth[11].bitrate = 1700Mbps
*.switch8.eth[12].bitrate = 1800Mbps
*.switch8.eth[13].bitrate = 1600Mbps
*.switch8.eth[14].bitrate = 2400Mbps
*.switch8.eth[15].bitrate = 2400Mbps
*.switch8.eth[16].bitrate = 1400Mbps
*.switch8.eth[17].bitrate = 1600Mbps
*.switch8.eth[18].bitrate = 1200Mbps
*.switch8.eth[19].bitrate = 1500Mbps
*.switch8.eth[20].bitrate = 1800Mbps
*.switch8.eth[21].bitrate = 1900Mbps
*.switch8.eth[22].bitrate = 1600Mbps
*.switch8.eth[23].bitrate = 2300Mbps
*.switch8.eth[24].bitrate = 1800Mbps
*.switch8.eth[25].bitrate = 1500Mbps
*.host9.eth[0].bitrate = 1000Mbps
*.switch9.eth[0].bitrate = 1000Mbps
*.switch9.eth[1].bitrate = 1300Mbps
*.switch9.eth[2].bitrate = 1600Mbps
*.switch9.eth[3].bitrate = 2100Mbps
*.switch9.eth[4].bitrate = 1700Mbps
*.switch9.eth[5].bitrate = 2400Mbps
*.switch9.eth[6].bitrate = 1900Mbps
*.switch9.eth[7].bitrate = 1900Mbps
*.switch9.eth[8].bitrate = 1600Mbps
*.switch9.eth[9].bitrate = 1900Mbps
*.switch9.eth[10].bitrate = 1400Mbps
*.switch9.eth[11].bitrate = 1700Mbps
*.switch9.eth[12].bitrate = 1500Mbps
*.switch9.eth[13].bitrate = 1900Mbps
*.switch9.eth[14].bitrate = 1800Mbps
*.switch9.eth[15].bitrate = 1300Mbps
*.switch9.eth[16].bitrate = 1400Mbps
*.switch9.eth[17].bitrate = 1200Mbps
*.switch9.eth[18].bitrate = 1500Mbps
*.switch9.eth[19].bitrate = 2200Mbps
*.switch9.eth[20].bitrate = 1400Mbps
*.switch9.eth[21].bitrate = 1200Mbps
*.switch9.eth[22].bitrate = 1400Mbps
*.host10.eth[0].bitrate = 1000Mbps
*.switch10.eth[0].bitrate = 1000Mbps
*.switch10.eth[1].bitrate = 2100Mbps
*.switch10.eth[2].bitrate = 1600Mbps
*.switch10.eth[3].bitrate = 2200Mbps
*.switch10.eth[4].bitrate = 1200Mbps
*.switch10.eth[5].bitrate = 1800Mbps
*.switch10.eth[6].bitrate = 1200Mbps
*.switch10.eth[7].bitrate = 2400Mbps
*.switch10.eth[8].bitrate = 2000Mbps
*.switch10.eth[9].bitrate = 1900Mbps
*.switch10.eth[10].bitrate = 2200Mbps
*.switch10.eth[11].bitrate = 1400Mbps
*.switch10.eth[12].bitrate = 1500Mbps
*.switch10.eth[13].bitrate = 2200Mbps
*.switch10.eth[14].bitrate = 1300Mbps
*.switch10.eth[15].bitrate = 2000Mbps
*.switch10.eth[16].bitrate = 2300Mbps
*.switch10.eth[17].bitrate = 1600Mbps
*.switch10.eth[18].bitrate = 1400Mbps
*.switch10.eth[19].bitrate = 1300Mbps
*.switch10.eth[20].bitrate = 1200Mbps
*.switch10.eth[21].bitrate = 1400Mbps
*.switch10.eth[22].bitrate = 1600Mbps
*.host11.eth[0].bitrate = 1000Mbps
*.switch11.eth[0].bitrate = 1000Mbps
*.switch11.eth[1].bitrate = 2100Mbps
*.switch11.eth[2].bitrate = 2100Mbps
*.switch11.eth[3].bitrate = 2100Mbps
*.switch11.eth[4].bitrate = 2200Mbps
*.switch11.eth[5].bitrate = 1300Mbps
*.switch11.eth[6].bitrate = 1800Mbps
*.switch11.eth[7].bitrate = 1800Mbps
*.switch11.eth[8].bitrate = 2400Mbps
*.switch11.eth[9].bitrate = 2100Mbps
*.switch11.eth[10].bitrate = 1500Mbps
*.switch11.eth[11].bitrate = 1200Mbps
*.switch11.eth[12].bitrate = 1900Mbps
*.switch11.eth[13].bitrate = 2300Mbps
*.switch11.eth[14].bitrate = 2100Mbps
*.switch11.eth[15].bitrate = 1500Mbps
*.switch11.eth[16].bitrate = 1400Mbps
*.switch11.eth[17].bitrate = 2400Mbps
*.switch11.eth[18].bitrate = 2100Mbps
*.host12.eth[0].bitrate = 1000Mbps
*.switch12.eth[0].bitrate = 1000Mbps
*.switch12.eth[1].bitrate = 2400Mbps
*.switch12.eth[2].bitrate = 2100Mbps
*.switch12.eth[3].bitrate = 1800Mbps
*.switch12.eth[4].bitrate = 2000Mbps
*.switch12.eth[5].bitrate = 1300Mbps
*.switch12.eth[6].bitrate = 1600Mbps
*.switch12.eth[7].bitrate = 1400Mbps
*.switch12.eth[8].bitrate = 1200Mbps
*.switch12.eth[9].bitrate = 2300Mbps
*.switch12.eth[10].bitrate = 1500Mbps
*.switch12.eth[11].bitrate = 1500Mbps
*.switch12.eth[12].bitrate = 2100Mbps
*.switch12.eth[13].bitrate = 2400Mbps
*.switch12.eth[14].bitrate = 1800Mbps
*.switch12.eth[15].bitrate = 1500Mbps
*.switch12.eth[16].bitrate = 2100Mbps
*.switch12.eth[17].bitrate = 1300Mbps
*.switch12.eth[18].bitrate = 1400Mbps
*.switch12.eth[19].bitrate = 1600Mbps
*.switch12.eth[20].bitrate = 2300Mbps
*.switch12.eth[21].bitrate = 2200Mbps
*.switch12.eth[22].bitrate = 1400Mbps
*.switch12.eth[23].bitrate = 1200Mbps
*.switch12.eth[24].bitrate = 1600Mbps
*.switch12.eth[25].bitrate = 2300Mbps
*.host13.eth[0].bitrate = 1000Mbps
*.switch13.eth[0].bitrate = 1000Mbps
*.switch13.eth[1].bitrate = 2400Mbps
*.switch13.eth[2].bitrate = 1300Mbps
*.switch13.eth[3].bitrate = 2200Mbps
*.switch13.eth[4].bitrate = 1600Mbps
*.switch13.eth[5].bitrate = 1700Mbps
*.switch13.eth[6].bitrate = 2000Mbps
*.switch13.eth[7].bitrate = 1400Mbps
*.switch13.eth[8].bitrate = 1700Mbps
*.switch13.eth[9].bitrate = 2400Mbps
*.switch13.eth[10].bitrate = 1900Mbps
*.switch13.eth[11].bitrate = 1500Mbps
*.switch13.eth[12].bitrate = 1800Mbps
*.switch13.eth[13].bitrate = 2100Mbps
*.switch13.eth[14].bitrate = 1300Mbps
*.switch13.eth[15].bitrate = 2300Mbps
*.switch13.eth[16].bitrate = 1600Mbps
*.switch13.eth[17].bitrate = 1300Mbps
*.switch13.eth[18].bitrate = 2300Mbps
*.switch13.eth[19].bitrate = 1900Mbps
*.switch13.eth[20].bitrate = 1300Mbps
*.switch13.eth[21].bitrate = 1300Mbps
*.switch13.eth[22].bitrate = 2100Mbps
*.host14.eth[0].bitrate = 1000Mbps
*.switch14.eth[0].bitrate = 1000Mbps
*.switch14.eth[1].bitrate = 1200Mbps
*.switch14.eth[2].bitrate = 2100Mbps
*.switch14.eth[3].bitrate = 1700Mbps
*.switch14.eth[4].bitrate = 2100Mbps
*.switch14.eth[5].bitrate = 2100Mbps
*.switch14.eth[6].bitrate = 2300Mbps
*.switch14.eth[7].bitrate = 2400Mbps
*.switch14.eth[8].bitrate = 1700Mbps
*.switch14.eth[9].bitrate = 2100Mbps
*.switch14.eth[10].bitrate = 1500Mbps
*.switch14.eth[11].bitrate = 1600Mbps
*.switch14.eth[12].bitrate = 2100Mbps
*.switch14.eth[13].bitrate = 1500Mbps
*.switch14.eth[14].bitrate = 2000Mbps
*.switch14.eth[15].bitrate = 2300Mbps
*.switch14.eth[16].bitrate = 1300Mbps
*.switch14.eth[17].bitrate = 2300Mbps
*.switch14.eth[18].bitrate = 2100Mbps
*.switch14.eth[19].bitrate = 1700Mbps
*.switch14.eth[20].bitrate = 2000Mbps
*.switch14.eth[21].bitrate = 1700Mbps
*.switch14.eth[22].bitrate = 2400Mbps
*.switch14.eth[23].bitrate = 1700Mbps
*.switch14.eth[24].bitrate = 1400Mbps
*.switch14.eth[25].bitrate = 2300Mbps
*.host15.eth[0].bitrate = 1000Mbps
*.switch15.eth[0].bitrate = 1000Mbps
*.switch15.eth[1].bitrate = 2300Mbps
*.switch15.eth[2].bitrate = 2400Mbps
*.switch15.eth[3].bitrate = 2300Mbps
*.switch15.eth[4].bitrate = 2200Mbps
*.switch15.eth[5].bitrate = 2400Mbps
*.switch15.eth[6].bitrate = 2400Mbps
*.switch15.eth[7].bitrate = 1500Mbps
*.switch15.eth[8].bitrate = 2000Mbps
*.switch15.eth[9].bitrate = 2300Mbps
*.switch15.eth[10].bitrate = 2000Mbps
*.switch15.eth[11].bitrate = 1500Mbps
*.switch15.eth[12].bitrate = 2400Mbps
*.switch15.eth[13].bitrate = 1200Mbps
*.switch15.eth[14].bitrate = 1700Mbps
*.switch15.eth[15].bitrate = 2200Mbps
*.switch15.eth[16].bitrate = 2300Mbps
*.switch15.eth[17].bitrate = 1500Mbps
*.switch15.eth[18].bitrate = 2300Mbps
*.switch15.eth[19].bitrate = 1700Mbps
*.switch15.eth[20].bitrate = 2000Mbps
*.switch15.eth[21].bitrate = 2000Mbps
*.switch15.eth[22].bitrate = 2300Mbps
*.switch15.eth[23].bitrate = 2100Mbps
*.switch15.eth[24].bitrate = 1200Mbps
*.switch15.eth[25].bitrate = 2100Mbps
*.switch15.eth[26].bitrate = 1600Mbps
*.switch15.eth[27].bitrate = 2400Mbps
*.switch15.eth[28].bitrate = 1200Mbps
*.switch15.eth[29].bitrate = 1200Mbps
*.switch15.eth[30].bitrate = 2400Mbps
*.switch15.eth[31].bitrate = 1400Mbps
*.switch15.eth[32].bitrate = 1800Mbps
*.host16.eth[0].bitrate = 1000Mbps
*.switch16.eth[0].bitrate = 1000Mbps
*.switch16.eth[1].bitrate = 2100Mbps
*.switch16.eth[2].bitrate = 2100Mbps
*.switch16.eth[3].bitrate = 1500Mbps
*.switch16.eth[4].bitrate = 1900Mbps
*.switch16.eth[5].bitrate = 1400Mbps
*.switch16.eth[6].bitrate = 1900Mbps
*.switch16.eth[7].bitrate = 2300Mbps
*.switch16.eth[8].bitrate = 1300Mbps
*.switch16.eth[9].bitrate = 2000Mbps
*.switch16.eth[10].bitrate = 1300Mbps
*.switch16.eth[11].bitrate = 2100Mbps
*.switch16.eth[12].bitrate = 1500Mbps
*.switch16.eth[13].bitrate = 1200Mbps
*.switch16.eth[14].bitrate = 1900Mbps
*.switch16.eth[15].bitrate = 1200Mbps
*.switch16.eth[16].bitrate = 2300Mbps
*.switch16.eth[17].bitrate = 1400Mbps
*.switch16.eth[18].bitrate = 1600Mbps
*.switch16.eth[19].bitrate = 1400Mbps
*.switch16.eth[20].bitrate = 1900Mbps
*.switch16.eth[21].bitrate = 2400Mbps
*.switch16.eth[22].bitrate = 1200Mbps
*.switch16.eth[23].bitrate = 1200Mbps
*.switch16.eth[24].bitrate = 2000Mbps
*.switch16.eth[25].bitrate = 2300Mbps
*.switch16.eth[26].bitrate = 1400Mbps
*.switch16.eth[27].bitrate = 2200Mbps
*.switch16.eth[28].bitrate = 1500Mbps
*.switch16.eth[29].bitrate = 2200Mbps
*.switch16.eth[30].bitrate = 2000Mbps
*.switch16.eth[31].bitrate = 1300Mbps
*.switch16.eth[32].bitrate = 2000Mbps
*.switch16.eth[33].bitrate = 1800Mbps
*.switch16.eth[34].bitrate = 2100Mbps
*.switch16.eth[35].bitrate = 1400Mbps
*.host17.eth[0].bitrate = 1000Mbps
*.switch17.eth[0].bitrate = 1000Mbps
*.switch17.eth[1].bitrate = 1600Mbps
*.switch17.eth[2].bitrate = 1200Mbps
*.switch17.eth[3].bitrate = 1500Mbps
*.switch17.eth[4].bitrate = 1800Mbps
*.switch17.eth[5].bitrate = 1400Mbps
*.switch17.eth[6].bitrate = 1600Mbps
*.switch17.eth[7].bitrate = 1700Mbps
*.switch17.eth[8].bitrate = 1600Mbps
*.switch17.eth[9].bitrate = 2200Mbps
*.switch17.eth[10].bitrate = 2100Mbps
*.switch17.eth[11].bitrate = 2000Mbps
*.switch17.eth[12].bitrate = 1200Mbps
*.switch17.eth[13].bitrate = 2400Mbps
*.switch17.eth[14].bitrate = 1400Mbps
*.switch17.eth[15].bitrate = 2400Mbps
*.switch17.eth[16].bitrate = 1200Mbps
*.switch17.eth[17].bitrate = 2000Mbps
*.switch17.eth[18].bitrate = 2100Mbps
*.switch17.eth[19].bitrate = 1600Mbps
*.switch17.eth[20].bitrate = 2200Mbps
*.switch17.eth[21].bitrate = 1600Mbps
*.switch17.eth[22].bitrate = 1200Mbps
*.switch17.eth[23].bitrate = 1300Mbps
*.switch17.eth[24].bitrate = 1300Mbps
*.host18.eth[0].bitrate = 1000Mbps
*.switch18.eth[0].bitrate = 1000Mbps
*.switch18.eth[1].bitrate = 1500Mbps
*.switch18.eth[2].bitrate = 1600Mbps
*.switch18.eth[3].bitrate = 2400Mbps
*.switch18.eth[4].bitrate = 2000Mbps
*.switch18.eth[5].bitrate = 1800Mbps
*.switch18.eth[6].bitrate = 1200Mbps
*.switch18.eth[7].bitrate = 1800Mbps
*.switch18.eth[8].bitrate = 1500Mbps
*.switch18.eth[9].bitrate = 2300Mbps
*.switch18.eth[10].bitrate = 2000Mbps
*.switch18.eth[11].bitrate = 2100Mbps
*.switch18.eth[12].bitrate = 1200Mbps
*.switch18.eth[13].bitrate = 1300Mbps
*.switch18.eth[14].bitrate = 1200Mbps
*.switch18.eth[15].bitrate = 1300Mbps
*.switch18.eth[16].bitrate = 1200Mbps
*.switch18.eth[17].bitrate = 1300Mbps
*.switch18.eth[18].bitrate = 2200Mbps
*.switch18.eth[19].bitrate = 1200Mbps
*.switch18.eth[20].bitrate = 1600Mbps
*.switch18.eth[21].bitrate = 1400Mbps
*.switch18.eth[22].bitrate = 1500Mbps
*.switch18.eth[23].bitrate = 1300Mbps
*.host19.eth[0].bitrate = 1000Mbps
*.switch19.eth[0].bitrate = 1000Mbps
*.switch19.eth[1].bitrate = 2100Mbps
*.switch19.eth[2].bitrate = 2200Mbps
*.switch19.eth[3].bitrate = 1400Mbps
*.switch19.eth[4].bitrate = 1600Mbps
*.switch19.eth[5].bitrate = 2000Mbps
*.switch19.eth[6].bitrate = 1500Mbps
*.switch19.eth[7].bitrate = 2300Mbps
*.switch19.eth[8].bitrate = 2300Mbps
*.switch19.eth[9].bitrate = 1200Mbps
*.switch19.eth[10].bitrate = 2000Mbps
*.switch19.eth[11].bitrate = 1900Mbps
*.switch19.eth[12].bitrate = 1500Mbps
*.switch19.eth[13].bitrate = 2000Mbps
*.switch19.eth[14].bitrate = 2200Mbps
*.switch19.eth[15].bitrate = 1200Mbps
*.switch19.eth[16].bitrate = 1300Mbps
*.switch19.eth[17].bitrate = 1800Mbps
*.switch19.eth[18].bitrate = 1400Mbps
*.switch19.eth[19].bitrate = 1300Mbps
*.switch19.eth[20].bitrate = 2100Mbps
*.switch19.eth[21].bitrate = 2200Mbps
*.switch19.eth[22].bitrate = 1300Mbps
*.switch19.eth[23].bitrate = 1700Mbps
*.switch19.eth[24].bitrate = 2400Mbps
*.switch19.eth[25].bitrate = 2000Mbps
*.switch19.eth[26].bitrate = 1600Mbps
*.switch19.eth[27].bitrate = 1300Mbps
*.switch19.eth[28].bitrate = 2100Mbps
*.switch19.eth[29].bitrate = 1200Mbps
*.switch19.eth[30].bitrate = 1700Mbps
*.switch19.eth[31].bitrate = 1800Mbps
*.switch19.eth[32].bitrate = 1400Mbps
*.switch19.eth[33].bitrate = 2000Mbps
*.switch19.eth[34].bitrate = 2300Mbps
*.host20.eth[0].bitrate = 1000Mbps
*.switch20.eth[0].bitrate = 1000Mbps
*.switch20.eth[1].bitrate = 1800Mbps
*.switch20.eth[2].bitrate = 1300Mbps
*.switch20.eth[3].bitrate = 2200Mbps
*.switch20.eth[4].bitrate = 1400Mbps
*.switch20.eth[5].bitrate = 1400Mbps
*.switch20.eth[6].bitrate = 2300Mbps
*.switch20.eth[7].bitrate = 1500Mbps
*.switch20.eth[8].bitrate = 2100Mbps
*.switch20.eth[9].bitrate = 2100Mbps
*.switch20.eth[10].bitrate = 2100Mbps
*.switch20.eth[11].bitrate = 1400Mbps
*.switch20.eth[12].bitrate = 1800Mbps
*.switch20.eth[13].bitrate = 2400Mbps
*.switch20.eth[14].bitrate = 2000Mbps
*.switch20.eth[15].bitrate = 1900Mbps
*.host21.eth[0].bitrate = 1000Mbps
*.switch21.eth[0].bitrate = 1000Mbps
*.switch21.eth[1].bitrate = 2100Mbps
*.switch21.eth[2].bitrate = 2000Mbps
*.switch21.eth[3].bitrate = 2000Mbps
*.switch21.eth[4].bitrate = 1800Mbps
*.switch21.eth[5].bitrate = 2200Mbps
*.switch21.eth[6].bitrate = 2000Mbps
*.switch21.eth[7].bitrate = 1300Mbps
*.switch21.eth[8].bitrate = 1300Mbps
*.switch21.eth[9].bitrate = 1200Mbps
*.switch21.eth[10].bitrate = 1400Mbps
*.switch21.eth[11].bitrate = 1600Mbps
*.switch21.eth[12].bitrate = 1200Mbps
*.switch21.eth[13].bitrate = 2400Mbps
*.switch21.eth[14].bitrate = 2300Mbps
*.switch21.eth[15].bitrate = 1500Mbps
*.switch21.eth[16].bitrate = 2300Mbps
*.switch21.eth[17].bitrate = 1200Mbps
*.switch21.eth[18].bitrate = 1200Mbps
*.switch21.eth[19].bitrate = 1400Mbps
*.switch21.eth[20].bitrate = 2100Mbps
*.switch21.eth[21].bitrate = 1200Mbps
*.switch21.eth[22].bitrate = 1700Mbps
*.switch21.eth[23].bitrate = 1700Mbps
*.switch21.eth[24].bitrate = 1800Mbps
*.host22.eth[0].bitrate = 1000Mbps
*.switch22.eth[0].bitrate = 1000Mbps
*.switch22.eth[1].bitrate = 2400Mbps
*.switch22.eth[2].bitrate = 1800Mbps
*.switch22.eth[3].bitrate = 1900Mbps
*.switch22.eth[4].bitrate = 1700Mbps
*.switch22.eth[5].bitrate = 1900Mbps
*.switch22.eth[6].bitrate = 1700Mbps
*.switch22.eth[7].bitrate = 1800Mbps
*.switch22.eth[8].bitrate = 1400Mbps
*.switch22.eth[9].bitrate = 2300Mbps
*.switch22.eth[10].bitrate = 2100Mbps
*.switch22.eth[11].bitrate = 2100Mbps
*.switch22.eth[12].bitrate = 2200Mbps
*.switch22.eth[13].bitrate = 1400Mbps
*.switch22.eth[14].bitrate = 1700Mbps
*.switch22.eth[15].bitrate = 1700Mbps
*.switch22.eth[16].bitrate = 1600Mbps
*.switch22.eth[17].bitrate = 1800Mbps
*.switch22.eth[18].bitrate = 1900Mbps
*.switch22.eth[19].bitrate = 1800Mbps
*.switch22.eth[20].bitrate = 1600Mbps
*.switch22.eth[21].bitrate = 1500Mbps
*.switch22.eth[22].bitrate = 1400Mbps
*.switch22.eth[23].bitrate = 1200Mbps
*.switch22.eth[24].bitrate = 2300Mbps
*.switch22.eth[25].bitrate = 1400Mbps
*.switch22.eth[26].bitrate = 1300Mbps
*.switch22.eth[27].bitrate = 1400Mbps
*.host23.eth[0].bitrate = 1000Mbps
*.switch23.eth[0].bitrate = 1000Mbps
*.switch23.eth[1].bitrate = 2200Mbps
*.switch23.eth[2].bitrate = 2100Mbps
*.switch23.eth[3].bitrate = 1700Mbps
*.switch23.eth[4].bitrate = 1300Mbps
*.switch23.eth[5].bitrate = 1900Mbps
*.switch23.eth[6].bitrate = 1400Mbps
*.switch23.eth[7].bitrate = 1600Mbps
*.switch23.eth[8].bitrate = 1700Mbps
*.switch23.eth[9].bitrate = 1600Mbps
*.switch23.eth[10].bitrate = 1500Mbps
*.switch23.eth[11].bitrate = 1600Mbps
*.switch23.eth[12].bitrate = 1500Mbps
*.switch23.eth[13].bitrate = 1300Mbps
*.switch23.eth[14].bitrate = 2200Mbps
*.switch23.eth[15].bitrate = 2400Mbps
*.switch23.eth[16].bitrate = 1600Mbps
*.switch23.eth[17].bitrate = 1300Mbps
*.switch23.eth[18].bitrate = 1400Mbps
*.switch23.eth[19].bitrate = 2000Mbps
*.switch23.eth[20].bitrate = 1700Mbps
*.host24.eth[0].bitrate = 1000Mbps
*.switch24.eth[0].bitrate = 1000Mbps
*.switch24.eth[1].bitrate = 2100Mbps
*.switch24.eth[2].bitrate = 1700Mbps
*.switch24.eth[3].bitrate = 1200Mbps
*.switch24.eth[4].bitrate = 1600Mbps
*.switch24.eth[5].bitrate = 1500Mbps
*.switch24.eth[6].bitrate = 2100Mbps
*.switch24.eth[7].bitrate = 1600Mbps
*.switch24.eth[8].bitrate = 1200Mbps
*.switch24.eth[9].bitrate = 1300Mbps
*.switch24.eth[10].bitrate = 1600Mbps
*.switch24.eth[11].bitrate = 2000Mbps
*.switch24.eth[12].bitrate = 2400Mbps
*.switch24.eth[13].bitrate = 2200Mbps
*.switch24.eth[14].bitrate = 1500Mbps
*.switch24.eth[15].bitrate = 1800Mbps
*.switch24.eth[16].bitrate = 2000Mbps
*.switch24.eth[17].bitrate = 1400Mbps
*.switch24.eth[18].bitrate = 2100Mbps
*.switch24.eth[19].bitrate = 1200Mbps
*.switch24.eth[20].bitrate = 2300Mbps
*.switch24.eth[21].bitrate = 1600Mbps
*.switch24.eth[22].bitrate = 2300Mbps
*.switch24.eth[23].bitrate = 2100Mbps
*.switch24.eth[24].bitrate = 1800Mbps
*.switch24.eth[25].bitrate = 1300Mbps
*.switch24.eth[26].bitrate = 2300Mbps
*.switch24.eth[27].bitrate = 1900Mbps
*.switch24.eth[28].bitrate = 1800Mbps
*.host0.numApps = 11
*.host0.app[0].typename = "UdpBasicApp"
*.host0.app[0].destAddresses = "host21"
*.host0.app[0].source.packetNameFormat = "%M-%m-%c"
*.host0.app[0].source.displayStringTextFormat = "sent %p pk (%l)"
*.host0.app[0].messageLength = 17B
*.host0.app[0].sendInterval = 1ms
*.host0.app[0].startTime = 26ms
*.host0.app[0].stopTime = 30ms
*.host0.app[0].display-name = "type2_0"
*.host0.app[0].destPort = 1002
*.host0.app[1].typename = "UdpBasicApp"
*.host0.app[1].destAddresses = "host21"
*.host0.app[1].source.packetNameFormat = "%M-%m-%c"
*.host0.app[1].source.displayStringTextFormat = "sent %p pk (%l)"
*.host0.app[1].messageLength = 17B
*.host0.app[1].sendInterval = 1ms
*.host0.app[1].startTime = 40ms
*.host0.app[1].stopTime = 49ms
*.host0.app[1].display-name = "type2_0"
*.host0.app[1].destPort = 1002
*.host0.app[2].typename = "UdpBasicApp"
*.host0.app[2].destAddresses = "host21"
*.host0.app[2].source.packetNameFormat = "%M-%m-%c"
*.host0.app[2].source.displayStringTextFormat = "sent %p pk (%l)"
*.host0.app[2].messageLength = 17B
*.host0.app[2].sendInterval = 1ms
*.host0.app[2].startTime = 51ms
*.host0.app[2].stopTime = 67ms
*.host0.app[2].display-name = "type2_0"
*.host0.app[2].destPort = 1002
*.host0.app[3].typename = "UdpBasicApp"
*.host0.app[3].destAddresses = "host21"
*.host0.app[3].source.packetNameFormat = "%M-%m-%c"
*.host0.app[3].source.displayStringTextFormat = "sent %p pk (%l)"
*.host0.app[3].messageLength = 17B
*.host0.app[3].sendInterval = 1ms
*.host0.app[3].startTime = 91ms
*.host0.app[3].stopTime = 100ms
*.host0.app[3].display-name = "type2_0"
*.host0.app[3].destPort = 1002
*.host0.app[4].typename = "UdpSinkApp"
*.host0.app[4].io.localPort = 1000
*.host0.app[5].typename = "UdpBasicApp"
*.host0.app[5].destAddresses = "host7"
*.host0.app[5].source.packetNameFormat = "%M-%m-%c"
*.host0.app[5].source.displayStringTextFormat = "sent %p pk (%l)"
*.host0.app[5].messageLength = 12B
*.host0.app[5].sendInterval = 1ms
*.host0.app[5].startTime = 3ms
*.host0.app[5].stopTime = 12ms
*.host0.app[5].display-name = "type2_7"
*.host0.app[5].destPort = 1000
*.host0.app[6].typename = "UdpBasicApp"
*.host0.app[6].destAddresses = "host7"
*.host0.app[6].source.packetNameFormat = "%M-%m-%c"
*.host0.app[6].source.displayStringTextFormat = "sent %p pk (%l)"
*.host0.app[6].messageLength = 12B
*.host0.app[6].sendInterval = 1ms
*.host0.app[6].startTime = 15ms
*.host0.app[6].stopTime = 25ms
*.host0.app[6].display-name = "type2_7"
*.host0.app[6].destPort = 1000
*.host0.app[7].typename = "UdpBasicApp"
*.host0.app[7].destAddresses = "host7"
*.host0.app[7].source.packetNameFormat = "%M-%m-%c"
*.host0.app[7].source.displayStringTextFormat = "sent %p pk (%l)"
*.host0.app[7].messageLength = 12B
*.host0.app[7].sendInterval = 1ms
*.host0.app[7].startTime = 30ms