
[General]
network = TSN_multipath
sim-time-limit = 2ms

# disable automatic MAC forwarding table configuration
*.macForwardingTableConfigurator.typename = ""

# enable frame replication and elimination
*.*.hasStreamRedundancy = true

# enable stream policing in layer 2
*.*.bridging.streamRelay.typename = "StreamRelayLayer"
*.*.bridging.streamCoder.typename = "StreamCoderLayer"

# enable automatic stream redundancy configurator
*.streamRedundancyConfigurator.typename = "StreamRedundancyConfigurator"

*.host0.eth[0].bitrate = 100Mbps
*.switch0.eth[0].bitrate = 100Mbps
*.switch0.eth[1].bitrate = 200Mbps
*.switch0.eth[2].bitrate = 180Mbps
*.switch0.eth[3].bitrate = 200Mbps
*.switch0.eth[4].bitrate = 80Mbps
*.switch0.eth[5].bitrate = 80Mbps
*.host1.eth[0].bitrate = 100Mbps
*.switch1.eth[0].bitrate = 100Mbps
*.switch1.eth[1].bitrate = 200Mbps
*.switch1.eth[2].bitrate = 180Mbps
*.switch1.eth[3].bitrate = 190Mbps
*.switch1.eth[4].bitrate = 80Mbps
*.host2.eth[0].bitrate = 100Mbps
*.switch2.eth[0].bitrate = 100Mbps
*.switch2.eth[1].bitrate = 200Mbps
*.switch2.eth[2].bitrate = 200Mbps
*.switch2.eth[3].bitrate = 80Mbps
*.switch2.eth[4].bitrate = 100Mbps
*.host3.eth[0].bitrate = 100Mbps
*.switch3.eth[0].bitrate = 100Mbps
*.switch3.eth[1].bitrate = 190Mbps
*.switch3.eth[2].bitrate = 80Mbps
*.switch3.eth[3].bitrate = 100Mbps
*.switch3.eth[4].bitrate = 80Mbps
*.host4.eth[0].bitrate = 100Mbps
*.switch4.eth[0].bitrate = 100Mbps
*.switch4.eth[1].bitrate = 200Mbps
*.switch4.eth[2].bitrate = 80Mbps
*.switch4.eth[3].bitrate = 80Mbps

# apps
            
*.host0.numApps = 4

*.host0.app[0].typename = "UdpSourceApp"
*.host0.app[0].io.destAddress = "host4"
*.host0.app[0].source.packetNameFormat = "%M-%m-%c"
*.host0.app[0].source.displayStringTextFormat = "sent %p pk (%l)"
*.host0.app[0].source.packetLength = 125B
*.host0.app[0].source.productionInterval = 100us
*.host0.app[0].display-name = "type1_0"
*.host0.app[0].io.destPort = 1000
                            
*.host0.app[1].typename = "UdpBasicApp"
*.host0.app[1].destAddresses = "host4"
*.host0.app[1].source.packetNameFormat = "%M-%m-%c"
*.host0.app[1].source.displayStringTextFormat = "sent %p pk (%l)"
*.host0.app[1].messageLength = 250B
*.host0.app[1].sendInterval = 100us
*.host0.app[1].startTime = 600us
*.host0.app[1].stopTime = 800us
*.host0.app[1].display-name = "type2_0"
*.host0.app[1].destPort = 1001
                            
*.host0.app[2].typename = "UdpBasicApp"
*.host0.app[2].destAddresses = "host4"
*.host0.app[2].source.packetNameFormat = "%M-%m-%c"
*.host0.app[2].source.displayStringTextFormat = "sent %p pk (%l)"
*.host0.app[2].messageLength = 250B
*.host0.app[2].sendInterval = 100us
*.host0.app[2].startTime = 900us
*.host0.app[2].stopTime = 1100us
*.host0.app[2].display-name = "type2_0"
*.host0.app[2].destPort = 1001
                            
*.host0.app[3].typename = "UdpBasicApp"
*.host0.app[3].destAddresses = "host4"
*.host0.app[3].source.packetNameFormat = "%M-%m-%c"
*.host0.app[3].source.displayStringTextFormat = "sent %p pk (%l)"
*.host0.app[3].messageLength = 250B
*.host0.app[3].sendInterval = 100us
*.host0.app[3].startTime = 1400us
*.host0.app[3].stopTime = 1800us
*.host0.app[3].display-name = "type2_0"
*.host0.app[3].destPort = 1001
                            
*.host1.numApps = 1

*.host1.app[0].typename = "UdpSinkApp"
*.host1.app[0].io.localPort = 1000
                        
*.host2.numApps = 5

*.host2.app[0].typename = "UdpSinkApp"
*.host2.app[0].io.localPort = 1000
                        
*.host2.app[1].typename = "UdpBasicApp"
*.host2.app[1].destAddresses = "host4"
*.host2.app[1].source.packetNameFormat = "%M-%m-%c"
*.host2.app[1].source.displayStringTextFormat = "sent %p pk (%l)"
*.host2.app[1].messageLength = 250B
*.host2.app[1].sendInterval = 100us
*.host2.app[1].startTime = 100us
*.host2.app[1].stopTime = 700us
*.host2.app[1].display-name = "type2_2"
*.host2.app[1].destPort = 1002
                            
*.host2.app[2].typename = "UdpBasicApp"
*.host2.app[2].destAddresses = "host4"
*.host2.app[2].source.packetNameFormat = "%M-%m-%c"
*.host2.app[2].source.displayStringTextFormat = "sent %p pk (%l)"
*.host2.app[2].messageLength = 250B
*.host2.app[2].sendInterval = 100us
*.host2.app[2].startTime = 800us
*.host2.app[2].stopTime = 1000us
*.host2.app[2].display-name = "type2_2"
*.host2.app[2].destPort = 1002
                            
*.host2.app[3].typename = "UdpBasicApp"
*.host2.app[3].destAddresses = "host4"
*.host2.app[3].source.packetNameFormat = "%M-%m-%c"
*.host2.app[3].source.displayStringTextFormat = "sent %p pk (%l)"
*.host2.app[3].messageLength = 250B
*.host2.app[3].sendInterval = 100us
*.host2.app[3].startTime = 1100us
*.host2.app[3].stopTime = 1300us
*.host2.app[3].display-name = "type2_2"
*.host2.app[3].destPort = 1002
                            
*.host2.app[4].typename = "UdpBasicApp"
*.host2.app[4].destAddresses = "host4"
*.host2.app[4].source.packetNameFormat = "%M-%m-%c"
*.host2.app[4].source.displayStringTextFormat = "sent %p pk (%l)"
*.host2.app[4].messageLength = 250B
*.host2.app[4].sendInterval = 100us
*.host2.app[4].startTime = 1400us
*.host2.app[4].stopTime = 1700us
*.host2.app[4].display-name = "type2_2"
*.host2.app[4].destPort = 1002
                            
*.host3.numApps = 4

*.host3.app[0].typename = "UdpSourceApp"
*.host3.app[0].io.destAddress = "host1"
*.host3.app[0].source.packetNameFormat = "%M-%m-%c"
*.host3.app[0].source.displayStringTextFormat = "sent %p pk (%l)"
*.host3.app[0].source.packetLength = 100B
*.host3.app[0].source.productionInterval = 100us
*.host3.app[0].display-name = "type1_1"
*.host3.app[0].io.destPort = 1000
                            
*.host3.app[1].typename = "UdpBasicApp"
*.host3.app[1].destAddresses = "host2"
*.host3.app[1].source.packetNameFormat = "%M-%m-%c"
*.host3.app[1].source.displayStringTextFormat = "sent %p pk (%l)"
*.host3.app[1].messageLength = 500B
*.host3.app[1].sendInterval = 100us
*.host3.app[1].startTime = 100us
*.host3.app[1].stopTime = 200us
*.host3.app[1].display-name = "type2_1"
*.host3.app[1].destPort = 1000
                            
*.host3.app[2].typename = "UdpBasicApp"
*.host3.app[2].destAddresses = "host2"
*.host3.app[2].source.packetNameFormat = "%M-%m-%c"
*.host3.app[2].source.displayStringTextFormat = "sent %p pk (%l)"
*.host3.app[2].messageLength = 500B
*.host3.app[2].sendInterval = 100us
*.host3.app[2].startTime = 300us
*.host3.app[2].stopTime = 700us
*.host3.app[2].display-name = "type2_1"
*.host3.app[2].destPort = 1000
                            
*.host3.app[3].typename = "UdpBasicApp"
*.host3.app[3].destAddresses = "host2"
*.host3.app[3].source.packetNameFormat = "%M-%m-%c"
*.host3.app[3].source.displayStringTextFormat = "sent %p pk (%l)"
*.host3.app[3].messageLength = 500B
*.host3.app[3].sendInterval = 100us
*.host3.app[3].startTime = 1200us
*.host3.app[3].stopTime = 2000us
*.host3.app[3].display-name = "type2_1"
*.host3.app[3].destPort = 1000
                            
*.host4.numApps = 3

*.host4.app[0].typename = "UdpSinkApp"
*.host4.app[0].io.localPort = 1000
                        
*.host4.app[1].typename = "UdpSinkApp"
*.host4.app[1].io.localPort = 1001
                        
*.host4.app[2].typename = "UdpSinkApp"
*.host4.app[2].io.localPort = 1002
                        
# seamless stream redundancy configuration
*.streamRedundancyConfigurator.configuration = [
    {
        name: "S1-0", 
        packetFilter: "*-type1_0-*", 
        source: "host0", 
        destination: "host4"
        trees: [[['switch1', 'switch2', 'switch3']]]
    },
                
    {
        name: "S1-1", 
        packetFilter: "*-type1_1-*", 
        source: "host3", 
        destination: "host1"
        trees: [[['switch3']]]
    },
                
    {
        name: "S1-0", 
        packetFilter: "*-type1_0-*", 
        source: "host0", 
        destination: "host4"
        trees: [[['switch1', 'switch2', 'switch3']]]
    },
    {
        name: "S1-1", 
        packetFilter: "*-type1_1-*", 
        source: "host3", 
        destination: "host2"
        trees: [[[]]]
    },
    {
        name: "S1-2", 
        packetFilter: "*-type1_2-*", 
        source: "host2", 
        destination: "host4"
        trees: [[[]]]
    }
]