[General]
network = TSN_multipath
sim-time-limit = 10ms
*.macForwardingTableConfigurator.typename = ""
*.*.hasStreamRedundancy = true
*.*.bridging.streamRelay.typename = "StreamRelayLayer"
*.*.bridging.streamCoder.typename = "StreamCoderLayer"
*.streamRedundancyConfigurator.typename = "StreamRedundancyConfigurator"
*.host0.eth[0].bitrate = 1000Mbps
*.switch0.eth[0].bitrate = 1000Mbps
*.switch0.eth[1].bitrate = 2200Mbps
*.switch0.eth[2].bitrate = 1400Mbps
*.switch0.eth[3].bitrate = 2400Mbps
*.switch0.eth[4].bitrate = 2000Mbps
*.switch0.eth[5].bitrate = 2300Mbps
*.switch0.eth[6].bitrate = 2300Mbps
*.host1.eth[0].bitrate = 1000Mbps
*.switch1.eth[0].bitrate = 1000Mbps
*.switch1.eth[1].bitrate = 2400Mbps
*.switch1.eth[2].bitrate = 2400Mbps
*.switch1.eth[3].bitrate = 1200Mbps
*.switch1.eth[4].bitrate = 1700Mbps
*.switch1.eth[5].bitrate = 1700Mbps
*.switch1.eth[6].bitrate = 1500Mbps
*.switch1.eth[7].bitrate = 2300Mbps
*.switch1.eth[8].bitrate = 1900Mbps
*.host2.eth[0].bitrate = 1000Mbps
*.switch2.eth[0].bitrate = 1000Mbps
*.switch2.eth[1].bitrate = 2400Mbps
*.switch2.eth[2].bitrate = 1400Mbps
*.switch2.eth[3].bitrate = 1800Mbps
*.switch2.eth[4].bitrate = 1700Mbps
*.switch2.eth[5].bitrate = 1900Mbps
*.switch2.eth[6].bitrate = 1900Mbps
*.switch2.eth[7].bitrate = 2200Mbps
*.switch2.eth[8].bitrate = 2400Mbps
*.switch2.eth[9].bitrate = 2400Mbps
*.switch2.eth[10].bitrate = 2300Mbps
*.switch2.eth[11].bitrate = 2100Mbps
*.host3.eth[0].bitrate = 1000Mbps
*.switch3.eth[0].bitrate = 1000Mbps
*.switch3.eth[1].bitrate = 1400Mbps
*.switch3.eth[2].bitrate = 1400Mbps
*.switch3.eth[3].bitrate = 1200Mbps
*.switch3.eth[4].bitrate = 1900Mbps
*.switch3.eth[5].bitrate = 1600Mbps
*.switch3.eth[6].bitrate = 1900Mbps
*.switch3.eth[7].bitrate = 2400Mbps
*.switch3.eth[8].bitrate = 1800Mbps
*.switch3.eth[9].bitrate = 2200Mbps
*.host4.eth[0].bitrate = 1000Mbps
*.switch4.eth[0].bitrate = 1000Mbps
*.switch4.eth[1].bitrate = 2400Mbps
*.switch4.eth[2].bitrate = 1700Mbps
*.switch4.eth[3].bitrate = 2200Mbps
*.switch4.eth[4].bitrate = 1900Mbps
*.switch4.eth[5].bitrate = 1700Mbps
*.switch4.eth[6].bitrate = 1700Mbps
*.switch4.eth[7].bitrate = 1900Mbps
*.switch4.eth[8].bitrate = 2200Mbps
*.switch4.eth[9].bitrate = 2200Mbps
*.switch4.eth[10].bitrate = 1700Mbps
*.host5.eth[0].bitrate = 1000Mbps
*.switch5.eth[0].bitrate = 1000Mbps
*.switch5.eth[1].bitrate = 1800Mbps
*.switch5.eth[2].bitrate = 1700Mbps
*.switch5.eth[3].bitrate = 1700Mbps
*.switch5.eth[4].bitrate = 2400Mbps
*.switch5.eth[5].bitrate = 2100Mbps
*.switch5.eth[6].bitrate = 1700Mbps
*.switch5.eth[7].bitrate = 1700Mbps
*.switch5.eth[8].bitrate = 1600Mbps
*.switch5.eth[9].bitrate = 1400Mbps
*.switch5.eth[10].bitrate = 2400Mbps
*.switch5.eth[11].bitrate = 2100Mbps
*.host6.eth[0].bitrate = 1000Mbps
*.switch6.eth[0].bitrate = 1000Mbps
*.switch6.eth[1].bitrate = 1700Mbps
*.switch6.eth[2].bitrate = 2100Mbps
*.switch6.eth[3].bitrate = 2000Mbps
*.switch6.eth[4].bitrate = 1500Mbps
*.switch6.eth[5].bitrate = 2400Mbps
*.switch6.eth[6].bitrate = 1400Mbps
*.switch6.eth[7].bitrate = 2000Mbps
*.switch6.eth[8].bitrate = 2000Mbps
*.switch6.eth[9].bitrate = 2200Mbps
*.host7.eth[0].bitrate = 1000Mbps
*.switch7.eth[0].bitrate = 1000Mbps
*.switch7.eth[1].bitrate = 1600Mbps
*.switch7.eth[2].bitrate = 1700Mbps
*.switch7.eth[3].bitrate = 1700Mbps
*.switch7.eth[4].bitrate = 2300Mbps
*.switch7.eth[5].bitrate = 2300Mbps
*.switch7.eth[6].bitrate = 2400Mbps
*.switch7.eth[7].bitrate = 1800Mbps
*.switch7.eth[8].bitrate = 2400Mbps
*.switch7.eth[9].bitrate = 2000Mbps
*.switch7.eth[10].bitrate = 1900Mbps
*.switch7.eth[11].bitrate = 2100Mbps
*.host8.eth[0].bitrate = 1000Mbps
*.switch8.eth[0].bitrate = 1000Mbps
*.switch8.eth[1].bitrate = 2200Mbps
*.switch8.eth[2].bitrate = 1900Mbps
*.switch8.eth[3].bitrate = 1700Mbps
*.switch8.eth[4].bitrate = 1900Mbps
*.switch8.eth[5].bitrate = 2300Mbps
*.switch8.eth[6].bitrate = 2200Mbps
*.switch8.eth[7].bitrate = 1400Mbps
*.switch8.eth[8].bitrate = 1400Mbps
*.host9.eth[0].bitrate = 1000Mbps
*.switch9.eth[0].bitrate = 1000Mbps
*.switch9.eth[1].bitrate = 2400Mbps
*.switch9.eth[2].bitrate = 1900Mbps
*.switch9.eth[3].bitrate = 2200Mbps
*.switch9.eth[4].bitrate = 1600Mbps
*.switch9.eth[5].bitrate = 2000Mbps
*.switch9.eth[6].bitrate = 2100Mbps
*.switch9.eth[7].bitrate = 1400Mbps
*.switch9.eth[8].bitrate = 2300Mbps
*.switch9.eth[9].bitrate = 1900Mbps
*.switch9.eth[10].bitrate = 2100Mbps
*.switch9.eth[11].bitrate = 2200Mbps
*.switch9.eth[12].bitrate = 1700Mbps
*.switch9.eth[13].bitrate = 2100Mbps
*.switch9.eth[14].bitrate = 2200Mbps
*.switch9.eth[15].bitrate = 1400Mbps
*.host0.numApps = 5
*.host0.app[0].typename = "UdpSinkApp"
*.host0.app[0].io.localPort = 1000
*.host0.app[1].typename = "UdpSourceApp"
*.host0.app[1].io.destAddress = "host9"
*.host0.app[1].source.packetNameFormat = "%M-%m-%c"
*.host0.app[1].source.displayStringTextFormat = "sent %p pk (%l)"
*.host0.app[1].source.packetLength = 23B
*.host0.app[1].source.productionInterval = 1ms
*.host0.app[1].display-name = "type1_2"
*.host0.app[1].io.destPort = 1000
*.host0.app[2].typename = "UdpSourceApp"
*.host0.app[2].io.destAddress = "host5"
*.host0.app[2].source.packetNameFormat = "%M-%m-%c"
*.host0.app[2].source.displayStringTextFormat = "sent %p pk (%l)"
*.host0.app[2].source.packetLength = 23B
*.host0.app[2].source.productionInterval = 1ms
*.host0.app[2].display-name = "type1_4"
*.host0.app[2].io.destPort = 1002
*.host0.app[3].typename = "UdpSinkApp"
*.host0.app[3].io.localPort = 1001
*.host0.app[4].typename = "UdpSinkApp"
*.host0.app[4].io.localPort = 1002
*.host1.numApps = 4
*.host1.app[0].typename = "UdpSourceApp"
*.host1.app[0].io.destAddress = "host4"
*.host1.app[0].source.packetNameFormat = "%M-%m-%c"
*.host1.app[0].source.displayStringTextFormat = "sent %p pk (%l)"
*.host1.app[0].source.packetLength = 24B
*.host1.app[0].source.productionInterval = 1ms
*.host1.app[0].display-name = "type1_6"
*.host1.app[0].io.destPort = 1000
*.host1.app[1].typename = "UdpSinkApp"
*.host1.app[1].io.localPort = 1000
*.host1.app[2].typename = "UdpSinkApp"
*.host1.app[2].io.localPort = 1001
*.host1.app[3].typename = "UdpSinkApp"
*.host1.app[3].io.localPort = 1002
*.host2.numApps = 1
*.host2.app[0].typename = "UdpSourceApp"
*.host2.app[0].io.destAddress = "host0"
*.host2.app[0].source.packetNameFormat = "%M-%m-%c"
*.host2.app[0].source.displayStringTextFormat = "sent %p pk (%l)"
*.host2.app[0].source.packetLength = 22B
*.host2.app[0].source.productionInterval = 1ms
*.host2.app[0].display-name = "type1_0"
*.host2.app[0].io.destPort = 1000
*.host3.numApps = 20
*.host3.app[0].typename = "UdpSourceApp"
*.host3.app[0].io.destAddress = "host5"
*.host3.app[0].source.packetNameFormat = "%M-%m-%c"
*.host3.app[0].source.displayStringTextFormat = "sent %p pk (%l)"
*.host3.app[0].source.packetLength = 15B
*.host3.app[0].source.productionInterval = 1ms
*.host3.app[0].display-name = "type1_1"
*.host3.app[0].io.destPort = 1000
*.host3.app[1].typename = "UdpSourceApp"
*.host3.app[1].io.destAddress = "host5"
*.host3.app[1].source.packetNameFormat = "%M-%m-%c"
*.host3.app[1].source.displayStringTextFormat = "sent %p pk (%l)"
*.host3.app[1].source.packetLength = 12B
*.host3.app[1].source.productionInterval = 1ms
*.host3.app[1].display-name = "type1_3"
*.host3.app[1].io.destPort = 1001
*.host3.app[2].typename = "UdpSinkApp"
*.host3.app[2].io.localPort = 1000
*.host3.app[3].typename = "UdpBasicApp"
*.host3.app[3].destAddresses = "host5"
*.host3.app[3].source.packetNameFormat = "%M-%m-%c"
*.host3.app[3].source.displayStringTextFormat = "sent %p pk (%l)"
*.host3.app[3].messageLength = 15B
*.host3.app[3].sendInterval = 1ms
*.host3.app[3].startTime = 1100us
*.host3.app[3].stopTime = 3300us
*.host3.app[3].display-name = "type2_0"
*.host3.app[3].destPort = 1004
*.host3.app[4].typename = "UdpBasicApp"
*.host3.app[4].destAddresses = "host5"
*.host3.app[4].source.packetNameFormat = "%M-%m-%c"
*.host3.app[4].source.displayStringTextFormat = "sent %p pk (%l)"
*.host3.app[4].messageLength = 15B
*.host3.app[4].sendInterval = 1ms
*.host3.app[4].startTime = 3900us
*.host3.app[4].stopTime = 4200us
*.host3.app[4].display-name = "type2_0"
*.host3.app[4].destPort = 1004
*.host3.app[5].typename = "UdpBasicApp"
*.host3.app[5].destAddresses = "host5"
*.host3.app[5].source.packetNameFormat = "%M-%m-%c"
*.host3.app[5].source.displayStringTextFormat = "sent %p pk (%l)"
*.host3.app[5].messageLength = 15B
*.host3.app[5].sendInterval = 1ms
*.host3.app[5].startTime = 5000us
*.host3.app[5].stopTime = 6400us
*.host3.app[5].display-name = "type2_0"
*.host3.app[5].destPort = 1004
*.host3.app[6].typename = "UdpBasicApp"
*.host3.app[6].destAddresses = "host5"
*.host3.app[6].source.packetNameFormat = "%M-%m-%c"
*.host3.app[6].source.displayStringTextFormat = "sent %p pk (%l)"
*.host3.app[6].messageLength = 15B
*.host3.app[6].sendInterval = 1ms
*.host3.app[6].startTime = 6600us
*.host3.app[6].stopTime = 7000us
*.host3.app[6].display-name = "type2_0"
*.host3.app[6].destPort = 1004
*.host3.app[7].typename = "UdpBasicApp"
*.host3.app[7].destAddresses = "host5"
*.host3.app[7].source.packetNameFormat = "%M-%m-%c"
*.host3.app[7].source.displayStringTextFormat = "sent %p pk (%l)"
*.host3.app[7].messageLength = 15B
*.host3.app[7].sendInterval = 1ms
*.host3.app[7].startTime = 8400us
*.host3.app[7].stopTime = 8900us
*.host3.app[7].display-name = "type2_0"
*.host3.app[7].destPort = 1004
*.host3.app[8].typename = "UdpBasicApp"
*.host3.app[8].destAddresses = "host1"
*.host3.app[8].source.packetNameFormat = "%M-%m-%c"
*.host3.app[8].source.displayStringTextFormat = "sent %p pk (%l)"
*.host3.app[8].messageLength = 12B
*.host3.app[8].sendInterval = 1ms
*.host3.app[8].startTime = 600us
*.host3.app[8].stopTime = 1500us
*.host3.app[8].display-name = "type2_1"
*.host3.app[8].destPort = 1000
*.host3.app[9].typename = "UdpBasicApp"
*.host3.app[9].destAddresses = "host1"
*.host3.app[9].source.packetNameFormat = "%M-%m-%c"
*.host3.app[9].source.displayStringTextFormat = "sent %p pk (%l)"
*.host3.app[9].messageLength = 12B
*.host3.app[9].sendInterval = 1ms
*.host3.app[9].startTime = 2100us
*.host3.app[9].stopTime = 6200us
*.host3.app[9].display-name = "type2_1"
*.host3.app[9].destPort = 1000
*.host3.app[10].typename = "UdpBasicApp"
*.host3.app[10].destAddresses = "host1"
*.host3.app[10].source.packetNameFormat = "%M-%m-%c"
*.host3.app[10].source.displayStringTextFormat = "sent %p pk (%l)"
*.host3.app[10].messageLength = 12B
*.host3.app[10].sendInterval = 1ms
*.host3.app[10].startTime = 6800us
*.host3.app[10].stopTime = 7200us
*.host3.app[10].display-name = "type2_1"
*.host3.app[10].destPort = 1000
*.host3.app[11].typename = "UdpSinkApp"
*.host3.app[11].io.localPort = 1001
*.host3.app[12].typename = "UdpBasicApp"
*.host3.app[12].destAddresses = "host5"
*.host3.app[12].source.packetNameFormat = "%M-%m-%c"
*.host3.app[12].source.displayStringTextFormat = "sent %p pk (%l)"
*.host3.app[12].messageLength = 21B
*.host3.app[12].sendInterval = 1ms
*.host3.app[12].startTime = 100us
*.host3.app[12].stopTime = 800us
*.host3.app[12].display-name = "type2_7"
*.host3.app[12].destPort = 1005
*.host3.app[13].typename = "UdpBasicApp"
*.host3.app[13].destAddresses = "host5"
*.host3.app[13].source.packetNameFormat = "%M-%m-%c"
*.host3.app[13].source.displayStringTextFormat = "sent %p pk (%l)"
*.host3.app[13].messageLength = 21B
*.host3.app[13].sendInterval = 1ms
*.host3.app[13].startTime = 1900us
*.host3.app[13].stopTime = 2300us
*.host3.app[13].display-name = "type2_7"
*.host3.app[13].destPort = 1005
*.host3.app[14].typename = "UdpBasicApp"
*.host3.app[14].destAddresses = "host5"
*.host3.app[14].source.packetNameFormat = "%M-%m-%c"
*.host3.app[14].source.displayStringTextFormat = "sent %p pk (%l)"
*.host3.app[14].messageLength = 21B
*.host3.app[14].sendInterval = 1ms
*.host3.app[14].startTime = 3000us
*.host3.app[14].stopTime = 3600us
*.host3.app[14].display-name = "type2_7"
*.host3.app[14].destPort = 1005
*.host3.app[15].typename = "UdpBasicApp"
*.host3.app[15].destAddresses = "host5"
*.host3.app[15].source.packetNameFormat = "%M-%m-%c"
*.host3.app[15].source.displayStringTextFormat = "sent %p pk (%l)"
*.host3.app[15].messageLength = 21B
*.host3.app[15].sendInterval = 1ms
*.host3.app[15].startTime = 4100us
*.host3.app[15].stopTime = 4700us
*.host3.app[15].display-name = "type2_7"
*.host3.app[15].destPort = 1005
*.host3.app[16].typename = "UdpBasicApp"
*.host3.app[16].destAddresses = "host5"
*.host3.app[16].source.packetNameFormat = "%M-%m-%c"
*.host3.app[16].source.displayStringTextFormat = "sent %p pk (%l)"
*.host3.app[16].messageLength = 21B
*.host3.app[16].sendInterval = 1ms
*.host3.app[16].startTime = 5400us
*.host3.app[16].stopTime = 5600us
*.host3.app[16].display-name = "type2_7"
*.host3.app[16].destPort = 1005
*.host3.app[17].typename = "UdpBasicApp"
*.host3.app[17].destAddresses = "host5"
*.host3.app[17].source.packetNameFormat = "%M-%m-%c"
*.host3.app[17].source.displayStringTextFormat = "sent %p pk (%l)"
*.host3.app[17].messageLength = 21B
*.host3.app[17].sendInterval = 1ms
*.host3.app[17].startTime = 5900us
*.host3.app[17].stopTime = 6600us
*.host3.app[17].display-name = "type2_7"
*.host3.app[17].destPort = 1005
*.host3.app[18].typename = "UdpBasicApp"
*.host3.app[18].destAddresses = "host5"
*.host3.app[18].source.packetNameFormat = "%M-%m-%c"
*.host3.app[18].source.displayStringTextFormat = "sent %p pk (%l)"
*.host3.app[18].messageLength = 21B
*.host3.app[18].sendInterval = 1ms
*.host3.app[18].startTime = 8800us
*.host3.app[18].stopTime = 9000us
*.host3.app[18].display-name = "type2_7"
*.host3.app[18].destPort = 1005
*.host3.app[19].typename = "UdpBasicApp"
*.host3.app[19].destAddresses = "host5"
*.host3.app[19].source.packetNameFormat = "%M-%m-%c"
*.host3.app[19].source.displayStringTextFormat = "sent %p pk (%l)"
*.host3.app[19].messageLength = 21B
*.host3.app[19].sendInterval = 1ms
*.host3.app[19].startTime = 9700us
*.host3.app[19].stopTime = 10000us
*.host3.app[19].display-name = "type2_7"
*.host3.app[19].destPort = 1005
*.host4.numApps = 6
*.host4.app[0].typename = "UdpSinkApp"
*.host4.app[0].io.localPort = 1000
*.host4.app[1].typename = "UdpBasicApp"
*.host4.app[1].destAddresses = "host9"
*.host4.app[1].source.packetNameFormat = "%M-%m-%c"
*.host4.app[1].source.displayStringTextFormat = "sent %p pk (%l)"
*.host4.app[1].messageLength = 15B
*.host4.app[1].sendInterval = 1ms
*.host4.app[1].startTime = 300us
*.host4.app[1].stopTime = 600us
*.host4.app[1].display-name = "type2_4"
*.host4.app[1].destPort = 1001
*.host4.app[2].typename = "UdpBasicApp"
*.host4.app[2].destAddresses = "host9"
*.host4.app[2].source.packetNameFormat = "%M-%m-%c"
*.host4.app[2].source.displayStringTextFormat = "sent %p pk (%l)"
*.host4.app[2].messageLength = 15B
*.host4.app[2].sendInterval = 1ms
*.host4.app[2].startTime = 1000us
*.host4.app[2].stopTime = 3000us
*.host4.app[2].display-name = "type2_4"
*.host4.app[2].destPort = 1001
*.host4.app[3].typename = "UdpBasicApp"
*.host4.app[3].destAddresses = "host9"
*.host4.app[3].source.packetNameFormat = "%M-%m-%c"
*.host4.app[3].source.displayStringTextFormat = "sent %p pk (%l)"
*.host4.app[3].messageLength = 15B
*.host4.app[3].sendInterval = 1ms
*.host4.app[3].startTime = 4100us
*.host4.app[3].stopTime = 5000us
*.host4.app[3].display-name = "type2_4"
*.host4.app[3].destPort = 1001
*.host4.app[4].typename = "UdpBasicApp"
*.host4.app[4].destAddresses = "host9"
*.host4.app[4].source.packetNameFormat = "%M-%m-%c"
*.host4.app[4].source.displayStringTextFormat = "sent %p pk (%l)"
*.host4.app[4].messageLength = 15B
*.host4.app[4].sendInterval = 1ms
*.host4.app[4].startTime = 6200us
*.host4.app[4].stopTime = 6600us
*.host4.app[4].display-name = "type2_4"
*.host4.app[4].destPort = 1001
*.host4.app[5].typename = "UdpBasicApp"
*.host4.app[5].destAddresses = "host9"
*.host4.app[5].source.packetNameFormat = "%M-%m-%c"
*.host4.app[5].source.displayStringTextFormat = "sent %p pk (%l)"
*.host4.app[5].messageLength = 15B
*.host4.app[5].sendInterval = 1ms
*.host4.app[5].startTime = 6900us
*.host4.app[5].stopTime = 9100us
*.host4.app[5].display-name = "type2_4"
*.host4.app[5].destPort = 1001
*.host5.numApps = 6
*.host5.app[0].typename = "UdpSinkApp"
*.host5.app[0].io.localPort = 1000
*.host5.app[1].typename = "UdpSinkApp"
*.host5.app[1].io.localPort = 1001
*.host5.app[2].typename = "UdpSinkApp"
*.host5.app[2].io.localPort = 1002
*.host5.app[3].typename = "UdpSinkApp"
*.host5.app[3].io.localPort = 1003
*.host5.app[4].typename = "UdpSinkApp"
*.host5.app[4].io.localPort = 1004
*.host5.app[5].typename = "UdpSinkApp"
*.host5.app[5].io.localPort = 1005
*.host6.numApps = 7
*.host6.app[0].typename = "UdpSourceApp"
*.host6.app[0].io.destAddress = "host8"
*.host6.app[0].source.packetNameFormat = "%M-%m-%c"
*.host6.app[0].source.displayStringTextFormat = "sent %p pk (%l)"
*.host6.app[0].source.packetLength = 22B
*.host6.app[0].source.productionInterval = 1ms
*.host6.app[0].display-name = "type1_9"
*.host6.app[0].io.destPort = 1000
*.host6.app[1].typename = "UdpBasicApp"
*.host6.app[1].destAddresses = "host3"
*.host6.app[1].source.packetNameFormat = "%M-%m-%c"
*.host6.app[1].source.displayStringTextFormat = "sent %p pk (%l)"
*.host6.app[1].messageLength = 19B
*.host6.app[1].sendInterval = 1ms
*.host6.app[1].startTime = 100us
*.host6.app[1].stopTime = 300us
*.host6.app[1].display-name = "type2_2"
*.host6.app[1].destPort = 1001
*.host6.app[2].typename = "UdpBasicApp"
*.host6.app[2].destAddresses = "host3"
*.host6.app[2].source.packetNameFormat = "%M-%m-%c"
*.host6.app[2].source.displayStringTextFormat = "sent %p pk (%l)"
*.host6.app[2].messageLength = 19B
*.host6.app[2].sendInterval = 1ms
*.host6.app[2].startTime = 1200us
*.host6.app[2].stopTime = 1900us
*.host6.app[2].display-name = "type2_2"
*.host6.app[2].destPort = 1001
*.host6.app[3].typename = "UdpBasicApp"
*.host6.app[3].destAddresses = "host3"
*.host6.app[3].source.packetNameFormat = "%M-%m-%c"
*.host6.app[3].source.displayStringTextFormat = "sent %p pk (%l)"
*.host6.app[3].messageLength = 19B
*.host6.app[3].sendInterval = 1ms
*.host6.app[3].startTime = 2500us
*.host6.app[3].stopTime = 2800us
*.host6.app[3].display-name = "type2_2"
*.host6.app[3].destPort = 1001
*.host6.app[4].typename = "UdpBasicApp"
*.host6.app[4].destAddresses = "host3"
*.host6.app[4].source.packetNameFormat = "%M-%m-%c"
*.host6.app[4].source.displayStringTextFormat = "sent %p pk (%l)"
*.host6.app[4].messageLength = 19B
*.host6.app[4].sendInterval = 1ms
*.host6.app[4].startTime = 3300us
*.host6.app[4].stopTime = 4000us
*.host6.app[4].display-name = "type2_2"
*.host6.app[4].destPort = 1001
*.host6.app[5].typename = "UdpBasicApp"
*.host6.app[5].destAddresses = "host3"
*.host6.app[5].source.packetNameFormat = "%M-%m-%c"
*.host6.app[5].source.displayStringTextFormat = "sent %p pk (%l)"
*.host6.app[5].messageLength = 19B
*.host6.app[5].sendInterval = 1ms
*.host6.app[5].startTime = 7800us
*.host6.app[5].stopTime = 8800us
*.host6.app[5].display-name = "type2_2"
*.host6.app[5].destPort = 1001
*.host6.app[6].typename = "UdpBasicApp"
*.host6.app[6].destAddresses = "host3"
*.host6.app[6].source.packetNameFormat = "%M-%m-%c"
*.host6.app[6].source.displayStringTextFormat = "sent %p pk (%l)"
*.host6.app[6].messageLength = 19B
*.host6.app[6].sendInterval = 1ms
*.host6.app[6].startTime = 9600us
*.host6.app[6].stopTime = 10000us
*.host6.app[6].display-name = "type2_2"
*.host6.app[6].destPort = 1001
*.host7.numApps = 11
*.host7.app[0].typename = "UdpSinkApp"
*.host7.app[0].io.localPort = 1000
*.host7.app[1].typename = "UdpSourceApp"
*.host7.app[1].io.destAddress = "host5"
*.host7.app[1].source.packetNameFormat = "%M-%m-%c"
*.host7.app[1].source.displayStringTextFormat = "sent %p pk (%l)"
*.host7.app[1].source.packetLength = 19B
*.host7.app[1].source.productionInterval = 1ms
*.host7.app[1].display-name = "type1_7"
*.host7.app[1].io.destPort = 1003
*.host7.app[2].typename = "UdpBasicApp"
*.host7.app[2].destAddresses = "host1"
*.host7.app[2].source.packetNameFormat = "%M-%m-%c"
*.host7.app[2].source.displayStringTextFormat = "sent %p pk (%l)"
*.host7.app[2].messageLength = 22B
*.host7.app[2].sendInterval = 1ms
*.host7.app[2].startTime = 1400us
*.host7.app[2].stopTime = 3800us
*.host7.app[2].display-name = "type2_3"
*.host7.app[2].destPort = 1001
*.host7.app[3].typename = "UdpBasicApp"
*.host7.app[3].destAddresses = "host1"
*.host7.app[3].source.packetNameFormat = "%M-%m-%c"
*.host7.app[3].source.displayStringTextFormat = "sent %p pk (%l)"
*.host7.app[3].messageLength = 22B
*.host7.app[3].sendInterval = 1ms
*.host7.app[3].startTime = 4200us
*.host7.app[3].stopTime = 4500us
*.host7.app[3].display-name = "type2_3"
*.host7.app[3].destPort = 1001
*.host7.app[4].typename = "UdpBasicApp"
*.host7.app[4].destAddresses = "host1"
*.host7.app[4].source.packetNameFormat = "%M-%m-%c"
*.host7.app[4].source.displayStringTextFormat = "sent %p pk (%l)"
*.host7.app[4].messageLength = 22B
*.host7.app[4].sendInterval = 1ms
*.host7.app[4].startTime = 4600us
*.host7.app[4].stopTime = 4700us
*.host7.app[4].display-name = "type2_3"
*.host7.app[4].destPort = 1001
*.host7.app[5].typename = "UdpBasicApp"
*.host7.app[5].destAddresses = "host1"
*.host7.app[5].source.packetNameFormat = "%M-%m-%c"
*.host7.app[5].source.displayStringTextFormat = "sent %p pk (%l)"
*.host7.app[5].messageLength = 22B
*.host7.app[5].sendInterval = 1ms
*.host7.app[5].startTime = 4800us
*.host7.app[5].stopTime = 5600us
*.host7.app[5].display-name = "type2_3"
*.host7.app[5].destPort = 1001
*.host7.app[6].typename = "UdpBasicApp"
*.host7.app[6].destAddresses = "host1"
*.host7.app[6].source.packetNameFormat = "%M-%m-%c"
*.host7.app[6].source.displayStringTextFormat = "sent %p pk (%l)"
*.host7.app[6].messageLength = 22B
*.host7.app[6].sendInterval = 1ms
*.host7.app[6].startTime = 6800us
*.host7.app[6].stopTime = 10000us
*.host7.app[6].display-name = "type2_3"
*.host7.app[6].destPort = 1001
*.host7.app[7].typename = "UdpBasicApp"
*.host7.app[7].destAddresses = "host8"
*.host7.app[7].source.packetNameFormat = "%M-%m-%c"
*.host7.app[7].source.displayStringTextFormat = "sent %p pk (%l)"
*.host7.app[7].messageLength = 20B
*.host7.app[7].sendInterval = 1ms
*.host7.app[7].startTime = 1100us
*.host7.app[7].stopTime = 3400us
*.host7.app[7].display-name = "type2_6"
*.host7.app[7].destPort = 1001
*.host7.app[8].typename = "UdpBasicApp"
*.host7.app[8].destAddresses = "host8"
*.host7.app[8].source.packetNameFormat = "%M-%m-%c"
*.host7.app[8].source.displayStringTextFormat = "sent %p pk (%l)"
*.host7.app[8].messageLength = 20B
*.host7.app[8].sendInterval = 1ms
*.host7.app[8].startTime = 3900us
*.host7.app[8].stopTime = 4700us
*.host7.app[8].display-name = "type2_6"
*.host7.app[8].destPort = 1001
*.host7.app[9].typename = "UdpBasicApp"
*.host7.app[9].destAddresses = "host8"
*.host7.app[9].source.packetNameFormat = "%M-%m-%c"
*.host7.app[9].source.displayStringTextFormat = "sent %p pk (%l)"
*.host7.app[9].messageLength = 20B
*.host7.app[9].sendInterval = 1ms
*.host7.app[9].startTime = 8900us
*.host7.app[9].stopTime = 9200us
*.host7.app[9].display-name = "type2_6"
*.host7.app[9].destPort = 1001
*.host7.app[10].typename = "UdpBasicApp"
*.host7.app[10].destAddresses = "host8"
*.host7.app[10].source.packetNameFormat = "%M-%m-%c"
*.host7.app[10].source.displayStringTextFormat = "sent %p pk (%l)"
*.host7.app[10].messageLength = 20B
*.host7.app[10].sendInterval = 1ms
*.host7.app[10].startTime = 9400us
*.host7.app[10].stopTime = 10000us
*.host7.app[10].display-name = "type2_6"
*.host7.app[10].destPort = 1001
*.host8.numApps = 21
*.host8.app[0].typename = "UdpSourceApp"
*.host8.app[0].io.destAddress = "host7"
*.host8.app[0].source.packetNameFormat = "%M-%m-%c"
*.host8.app[0].source.displayStringTextFormat = "sent %p pk (%l)"
*.host8.app[0].source.packetLength = 19B
*.host8.app[0].source.productionInterval = 1ms
*.host8.app[0].display-name = "type1_5"
*.host8.app[0].io.destPort = 1000
*.host8.app[1].typename = "UdpSinkApp"
*.host8.app[1].io.localPort = 1000
*.host8.app[2].typename = "UdpBasicApp"
*.host8.app[2].destAddresses = "host0"
*.host8.app[2].source.packetNameFormat = "%M-%m-%c"
*.host8.app[2].source.displayStringTextFormat = "sent %p pk (%l)"
*.host8.app[2].messageLength = 14B
*.host8.app[2].sendInterval = 1ms
*.host8.app[2].startTime = 400us
*.host8.app[2].stopTime = 1500us
*.host8.app[2].display-name = "type2_5"
*.host8.app[2].destPort = 1001
*.host8.app[3].typename = "UdpBasicApp"
*.host8.app[3].destAddresses = "host0"
*.host8.app[3].source.packetNameFormat = "%M-%m-%c"
*.host8.app[3].source.displayStringTextFormat = "sent %p pk (%l)"
*.host8.app[3].messageLength = 14B
*.host8.app[3].sendInterval = 1ms
*.host8.app[3].startTime = 2200us
*.host8.app[3].stopTime = 3200us
*.host8.app[3].display-name = "type2_5"
*.host8.app[3].destPort = 1001
*.host8.app[4].typename = "UdpBasicApp"
*.host8.app[4].destAddresses = "host0"
*.host8.app[4].source.packetNameFormat = "%M-%m-%c"
*.host8.app[4].source.displayStringTextFormat = "sent %p pk (%l)"
*.host8.app[4].messageLength = 14B
*.host8.app[4].sendInterval = 1ms
*.host8.app[4].startTime = 3300us
*.host8.app[4].stopTime = 3400us
*.host8.app[4].display-name = "type2_5"
*.host8.app[4].destPort = 1001
*.host8.app[5].typename = "UdpBasicApp"
*.host8.app[5].destAddresses = "host0"
*.host8.app[5].source.packetNameFormat = "%M-%m-%c"
*.host8.app[5].source.displayStringTextFormat = "sent %p pk (%l)"
*.host8.app[5].messageLength = 14B
*.host8.app[5].sendInterval = 1ms
*.host8.app[5].startTime = 4400us
*.host8.app[5].stopTime = 4600us
*.host8.app[5].display-name = "type2_5"
*.host8.app[5].destPort = 1001
*.host8.app[6].typename = "UdpBasicApp"
*.host8.app[6].destAddresses = "host0"
*.host8.app[6].source.packetNameFormat = "%M-%m-%c"
*.host8.app[6].source.displayStringTextFormat = "sent %p pk (%l)"
*.host8.app[6].messageLength = 14B
*.host8.app[6].sendInterval = 1ms
*.host8.app[6].startTime = 4700us
*.host8.app[6].stopTime = 5300us
*.host8.app[6].display-name = "type2_5"
*.host8.app[6].destPort = 1001
*.host8.app[7].typename = "UdpBasicApp"
*.host8.app[7].destAddresses = "host0"
*.host8.app[7].source.packetNameFormat = "%M-%m-%c"
*.host8.app[7].source.displayStringTextFormat = "sent %p pk (%l)"
*.host8.app[7].messageLength = 14B
*.host8.app[7].sendInterval = 1ms
*.host8.app[7].startTime = 8300us
*.host8.app[7].stopTime = 8800us
*.host8.app[7].display-name = "type2_5"
*.host8.app[7].destPort = 1001
*.host8.app[8].typename = "UdpSinkApp"
*.host8.app[8].io.localPort = 1001
*.host8.app[9].typename = "UdpBasicApp"
*.host8.app[9].destAddresses = "host0"
*.host8.app[9].source.packetNameFormat = "%M-%m-%c"
*.host8.app[9].source.displayStringTextFormat = "sent %p pk (%l)"
*.host8.app[9].messageLength = 12B
*.host8.app[9].sendInterval = 1ms
*.host8.app[9].startTime = 1300us
*.host8.app[9].stopTime = 1800us
*.host8.app[9].display-name = "type2_8"
*.host8.app[9].destPort = 1002
*.host8.app[10].typename = "UdpBasicApp"
*.host8.app[10].destAddresses = "host0"
*.host8.app[10].source.packetNameFormat = "%M-%m-%c"
*.host8.app[10].source.displayStringTextFormat = "sent %p pk (%l)"
*.host8.app[10].messageLength = 12B
*.host8.app[10].sendInterval = 1ms
*.host8.app[10].startTime = 2700us
*.host8.app[10].stopTime = 2800us
*.host8.app[10].display-name = "type2_8"
*.host8.app[10].destPort = 1002
*.host8.app[11].typename = "UdpBasicApp"
*.host8.app[11].destAddresses = "host0"
*.host8.app[11].source.packetNameFormat = "%M-%m-%c"
*.host8.app[11].source.displayStringTextFormat = "sent %p pk (%l)"
*.host8.app[11].messageLength = 12B
*.host8.app[11].sendInterval = 1ms
*.host8.app[11].startTime = 3200us
*.host8.app[11].stopTime = 3400us
*.host8.app[11].display-name = "type2_8"
*.host8.app[11].destPort = 1002
*.host8.app[12].typename = "UdpBasicApp"
*.host8.app[12].destAddresses = "host0"
*.host8.app[12].source.packetNameFormat = "%M-%m-%c"
*.host8.app[12].source.displayStringTextFormat = "sent %p pk (%l)"
*.host8.app[12].messageLength = 12B
*.host8.app[12].sendInterval = 1ms
*.host8.app[12].startTime = 4200us
*.host8.app[12].stopTime = 5100us
*.host8.app[12].display-name = "type2_8"
*.host8.app[12].destPort = 1002
*.host8.app[13].typename = "UdpBasicApp"
*.host8.app[13].destAddresses = "host0"
*.host8.app[13].source.packetNameFormat = "%M-%m-%c"
*.host8.app[13].source.displayStringTextFormat = "sent %p pk (%l)"
*.host8.app[13].messageLength = 12B
*.host8.app[13].sendInterval = 1ms
*.host8.app[13].startTime = 7000us
*.host8.app[13].stopTime = 7900us
*.host8.app[13].display-name = "type2_8"
*.host8.app[13].destPort = 1002
*.host8.app[14].typename = "UdpBasicApp"
*.host8.app[14].destAddresses = "host0"
*.host8.app[14].source.packetNameFormat = "%M-%m-%c"
*.host8.app[14].source.displayStringTextFormat = "sent %p pk (%l)"
*.host8.app[14].messageLength = 12B
*.host8.app[14].sendInterval = 1ms
*.host8.app[14].startTime = 8100us
*.host8.app[14].stopTime = 8400us
*.host8.app[14].display-name = "type2_8"
*.host8.app[14].destPort = 1002
*.host8.app[15].typename = "UdpBasicApp"
*.host8.app[15].destAddresses = "host0"
*.host8.app[15].source.packetNameFormat = "%M-%m-%c"
*.host8.app[15].source.displayStringTextFormat = "sent %p pk (%l)"
*.host8.app[15].messageLength = 12B
*.host8.app[15].sendInterval = 1ms
*.host8.app[15].startTime = 9100us
*.host8.app[15].stopTime = 10000us
*.host8.app[15].display-name = "type2_8"
*.host8.app[15].destPort = 1002
*.host8.app[16].typename = "UdpBasicApp"
*.host8.app[16].destAddresses = "host1"
*.host8.app[16].source.packetNameFormat = "%M-%m-%c"
*.host8.app[16].source.displayStringTextFormat = "sent %p pk (%l)"
*.host8.app[16].messageLength = 23B
*.host8.app[16].sendInterval = 1ms
*.host8.app[16].startTime = 500us
*.host8.app[16].stopTime = 700us
*.host8.app[16].display-name = "type2_9"
*.host8.app[16].destPort = 1002
*.host8.app[17].typename = "UdpBasicApp"
*.host8.app[17].destAddresses = "host1"
*.host8.app[17].source.packetNameFormat = "%M-%m-%c"
*.host8.app[17].source.displayStringTextFormat = "sent %p pk (%l)"
*.host8.app[17].messageLength = 23B
*.host8.app[17].sendInterval = 1ms
*.host8.app[17].startTime = 1800us