[General]
network = TSN_multipath
sim-time-limit = 100ms
*.macForwardingTableConfigurator.typename = ""
*.*.hasStreamRedundancy = true
*.*.bridging.streamRelay.typename = "StreamRelayLayer"
*.*.bridging.streamCoder.typename = "StreamCoderLayer"
*.streamRedundancyConfigurator.typename = "StreamRedundancyConfigurator"
*.host0.eth[0].bitrate = 1000Mbps
*.switch0.eth[0].bitrate = 1000Mbps
*.switch0.eth[1].bitrate = 1600Mbps
*.switch0.eth[2].bitrate = 2000Mbps
*.switch0.eth[3].bitrate = 1500Mbps
*.switch0.eth[4].bitrate = 2300Mbps
*.switch0.eth[5].bitrate = 1200Mbps
*.switch0.eth[6].bitrate = 2400Mbps
*.host1.eth[0].bitrate = 1000Mbps
*.switch1.eth[0].bitrate = 1000Mbps
*.switch1.eth[1].bitrate = 1500Mbps
*.switch1.eth[2].bitrate = 1700Mbps
*.switch1.eth[3].bitrate = 1400Mbps
*.switch1.eth[4].bitrate = 1600Mbps
*.switch1.eth[5].bitrate = 1400Mbps
*.switch1.eth[6].bitrate = 1500Mbps
*.host2.eth[0].bitrate = 1000Mbps
*.switch2.eth[0].bitrate = 1000Mbps
*.switch2.eth[1].bitrate = 1600Mbps
*.switch2.eth[2].bitrate = 1700Mbps
*.switch2.eth[3].bitrate = 1800Mbps
*.switch2.eth[4].bitrate = 1200Mbps
*.switch2.eth[5].bitrate = 1700Mbps
*.switch2.eth[6].bitrate = 1800Mbps
*.host3.eth[0].bitrate = 1000Mbps
*.switch3.eth[0].bitrate = 1000Mbps
*.switch3.eth[1].bitrate = 1700Mbps
*.switch3.eth[2].bitrate = 1300Mbps
*.switch3.eth[3].bitrate = 1800Mbps
*.switch3.eth[4].bitrate = 2100Mbps
*.switch3.eth[5].bitrate = 2100Mbps
*.switch3.eth[6].bitrate = 1500Mbps
*.switch3.eth[7].bitrate = 2200Mbps
*.host4.eth[0].bitrate = 1000Mbps
*.switch4.eth[0].bitrate = 1000Mbps
*.switch4.eth[1].bitrate = 1400Mbps
*.switch4.eth[2].bitrate = 1700Mbps
*.switch4.eth[3].bitrate = 1600Mbps
*.switch4.eth[4].bitrate = 2100Mbps
*.switch4.eth[5].bitrate = 1200Mbps
*.switch4.eth[6].bitrate = 1900Mbps
*.switch4.eth[7].bitrate = 1900Mbps
*.switch4.eth[8].bitrate = 2200Mbps
*.switch4.eth[9].bitrate = 2400Mbps
*.switch4.eth[10].bitrate = 1400Mbps
*.switch4.eth[11].bitrate = 1800Mbps
*.switch4.eth[12].bitrate = 1700Mbps
*.host5.eth[0].bitrate = 1000Mbps
*.switch5.eth[0].bitrate = 1000Mbps
*.switch5.eth[1].bitrate = 2000Mbps
*.switch5.eth[2].bitrate = 1200Mbps
*.switch5.eth[3].bitrate = 2300Mbps
*.switch5.eth[4].bitrate = 1400Mbps
*.switch5.eth[5].bitrate = 1800Mbps
*.switch5.eth[6].bitrate = 1400Mbps
*.switch5.eth[7].bitrate = 1300Mbps
*.switch5.eth[8].bitrate = 1700Mbps
*.switch5.eth[9].bitrate = 1900Mbps
*.switch5.eth[10].bitrate = 1300Mbps
*.host6.eth[0].bitrate = 1000Mbps
*.switch6.eth[0].bitrate = 1000Mbps
*.switch6.eth[1].bitrate = 1300Mbps
*.switch6.eth[2].bitrate = 1900Mbps
*.switch6.eth[3].bitrate = 1400Mbps
*.switch6.eth[4].bitrate = 1200Mbps
*.switch6.eth[5].bitrate = 1200Mbps
*.switch6.eth[6].bitrate = 1500Mbps
*.switch6.eth[7].bitrate = 1400Mbps
*.switch6.eth[8].bitrate = 1900Mbps
*.switch6.eth[9].bitrate = 1900Mbps
*.switch6.eth[10].bitrate = 1500Mbps
*.switch6.eth[11].bitrate = 2100Mbps
*.host7.eth[0].bitrate = 1000Mbps
*.switch7.eth[0].bitrate = 1000Mbps
*.switch7.eth[1].bitrate = 1800Mbps
*.switch7.eth[2].bitrate = 1900Mbps
*.switch7.eth[3].bitrate = 1300Mbps
*.switch7.eth[4].bitrate = 1900Mbps
*.switch7.eth[5].bitrate = 1400Mbps
*.switch7.eth[6].bitrate = 2000Mbps
*.switch7.eth[7].bitrate = 2400Mbps
*.host8.eth[0].bitrate = 1000Mbps
*.switch8.eth[0].bitrate = 1000Mbps
*.switch8.eth[1].bitrate = 2200Mbps
*.switch8.eth[2].bitrate = 1700Mbps
*.switch8.eth[3].bitrate = 1500Mbps
*.switch8.eth[4].bitrate = 2400Mbps
*.switch8.eth[5].bitrate = 1500Mbps
*.switch8.eth[6].bitrate = 1700Mbps
*.switch8.eth[7].bitrate = 1800Mbps
*.switch8.eth[8].bitrate = 2100Mbps
*.switch8.eth[9].bitrate = 2000Mbps
*.switch8.eth[10].bitrate = 1800Mbps
*.host9.eth[0].bitrate = 1000Mbps
*.switch9.eth[0].bitrate = 1000Mbps
*.switch9.eth[1].bitrate = 2100Mbps
*.switch9.eth[2].bitrate = 2400Mbps
*.switch9.eth[3].bitrate = 1400Mbps
*.switch9.eth[4].bitrate = 1800Mbps
*.switch9.eth[5].bitrate = 1800Mbps
*.switch9.eth[6].bitrate = 2200Mbps
*.switch9.eth[7].bitrate = 1700Mbps
*.switch9.eth[8].bitrate = 1300Mbps
*.switch9.eth[9].bitrate = 2400Mbps
*.host0.numApps = 1
*.host0.app[0].typename = "UdpSourceApp"
*.host0.app[0].io.destAddress = "host7"
*.host0.app[0].source.packetNameFormat = "%M-%m-%c"
*.host0.app[0].source.displayStringTextFormat = "sent %p pk (%l)"
*.host0.app[0].source.packetLength = 24B
*.host0.app[0].source.productionInterval = 1ms
*.host0.app[0].display-name = "type1_9"
*.host0.app[0].io.destPort = 1000
*.host1.numApps = 10
*.host1.app[0].typename = "UdpSourceApp"
*.host1.app[0].io.destAddress = "host8"
*.host1.app[0].source.packetNameFormat = "%M-%m-%c"
*.host1.app[0].source.displayStringTextFormat = "sent %p pk (%l)"
*.host1.app[0].source.packetLength = 20B
*.host1.app[0].source.productionInterval = 1ms
*.host1.app[0].display-name = "type1_4"
*.host1.app[0].io.destPort = 1000
*.host1.app[1].typename = "UdpSourceApp"
*.host1.app[1].io.destAddress = "host6"
*.host1.app[1].source.packetNameFormat = "%M-%m-%c"
*.host1.app[1].source.displayStringTextFormat = "sent %p pk (%l)"
*.host1.app[1].source.packetLength = 19B
*.host1.app[1].source.productionInterval = 1ms
*.host1.app[1].display-name = "type1_5"
*.host1.app[1].io.destPort = 1002
*.host1.app[2].typename = "UdpSinkApp"
*.host1.app[2].io.localPort = 1000
*.host1.app[3].typename = "UdpSinkApp"
*.host1.app[3].io.localPort = 1001
*.host1.app[4].typename = "UdpBasicApp"
*.host1.app[4].destAddresses = "host5"
*.host1.app[4].source.packetNameFormat = "%M-%m-%c"
*.host1.app[4].source.displayStringTextFormat = "sent %p pk (%l)"
*.host1.app[4].messageLength = 22B
*.host1.app[4].sendInterval = 1ms
*.host1.app[4].startTime = 5ms
*.host1.app[4].stopTime = 12ms
*.host1.app[4].display-name = "type2_3"
*.host1.app[4].destPort = 1000
*.host1.app[5].typename = "UdpBasicApp"
*.host1.app[5].destAddresses = "host5"
*.host1.app[5].source.packetNameFormat = "%M-%m-%c"
*.host1.app[5].source.displayStringTextFormat = "sent %p pk (%l)"
*.host1.app[5].messageLength = 22B
*.host1.app[5].sendInterval = 1ms
*.host1.app[5].startTime = 18ms
*.host1.app[5].stopTime = 21ms
*.host1.app[5].display-name = "type2_3"
*.host1.app[5].destPort = 1000
*.host1.app[6].typename = "UdpBasicApp"
*.host1.app[6].destAddresses = "host5"
*.host1.app[6].source.packetNameFormat = "%M-%m-%c"
*.host1.app[6].source.displayStringTextFormat = "sent %p pk (%l)"
*.host1.app[6].messageLength = 22B
*.host1.app[6].sendInterval = 1ms
*.host1.app[6].startTime = 26ms
*.host1.app[6].stopTime = 28ms
*.host1.app[6].display-name = "type2_3"
*.host1.app[6].destPort = 1000
*.host1.app[7].typename = "UdpBasicApp"
*.host1.app[7].destAddresses = "host5"
*.host1.app[7].source.packetNameFormat = "%M-%m-%c"
*.host1.app[7].source.displayStringTextFormat = "sent %p pk (%l)"
*.host1.app[7].messageLength = 22B
*.host1.app[7].sendInterval = 1ms
*.host1.app[7].startTime = 39ms
*.host1.app[7].stopTime = 43ms
*.host1.app[7].display-name = "type2_3"
*.host1.app[7].destPort = 1000
*.host1.app[8].typename = "UdpBasicApp"
*.host1.app[8].destAddresses = "host5"
*.host1.app[8].source.packetNameFormat = "%M-%m-%c"
*.host1.app[8].source.displayStringTextFormat = "sent %p pk (%l)"
*.host1.app[8].messageLength = 22B
*.host1.app[8].sendInterval = 1ms
*.host1.app[8].startTime = 47ms
*.host1.app[8].stopTime = 51ms
*.host1.app[8].display-name = "type2_3"
*.host1.app[8].destPort = 1000
*.host1.app[9].typename = "UdpBasicApp"
*.host1.app[9].destAddresses = "host5"
*.host1.app[9].source.packetNameFormat = "%M-%m-%c"
*.host1.app[9].source.displayStringTextFormat = "sent %p pk (%l)"
*.host1.app[9].messageLength = 22B
*.host1.app[9].sendInterval = 1ms
*.host1.app[9].startTime = 90ms
*.host1.app[9].stopTime = 95ms
*.host1.app[9].display-name = "type2_3"
*.host1.app[9].destPort = 1000
*.host2.numApps = 10
*.host2.app[0].typename = "UdpSinkApp"
*.host2.app[0].io.localPort = 1000
*.host2.app[1].typename = "UdpSinkApp"
*.host2.app[1].io.localPort = 1001
*.host2.app[2].typename = "UdpSinkApp"
*.host2.app[2].io.localPort = 1002
*.host2.app[3].typename = "UdpBasicApp"
*.host2.app[3].destAddresses = "host9"
*.host2.app[3].source.packetNameFormat = "%M-%m-%c"
*.host2.app[3].source.displayStringTextFormat = "sent %p pk (%l)"
*.host2.app[3].messageLength = 15B
*.host2.app[3].sendInterval = 1ms
*.host2.app[3].startTime = 10ms
*.host2.app[3].stopTime = 11ms
*.host2.app[3].display-name = "type2_7"
*.host2.app[3].destPort = 1000
*.host2.app[4].typename = "UdpBasicApp"
*.host2.app[4].destAddresses = "host9"
*.host2.app[4].source.packetNameFormat = "%M-%m-%c"
*.host2.app[4].source.displayStringTextFormat = "sent %p pk (%l)"
*.host2.app[4].messageLength = 15B
*.host2.app[4].sendInterval = 1ms
*.host2.app[4].startTime = 37ms
*.host2.app[4].stopTime = 41ms
*.host2.app[4].display-name = "type2_7"
*.host2.app[4].destPort = 1000
*.host2.app[5].typename = "UdpBasicApp"
*.host2.app[5].destAddresses = "host9"
*.host2.app[5].source.packetNameFormat = "%M-%m-%c"
*.host2.app[5].source.displayStringTextFormat = "sent %p pk (%l)"
*.host2.app[5].messageLength = 15B
*.host2.app[5].sendInterval = 1ms
*.host2.app[5].startTime = 53ms
*.host2.app[5].stopTime = 54ms
*.host2.app[5].display-name = "type2_7"
*.host2.app[5].destPort = 1000
*.host2.app[6].typename = "UdpBasicApp"
*.host2.app[6].destAddresses = "host9"
*.host2.app[6].source.packetNameFormat = "%M-%m-%c"
*.host2.app[6].source.displayStringTextFormat = "sent %p pk (%l)"
*.host2.app[6].messageLength = 15B
*.host2.app[6].sendInterval = 1ms
*.host2.app[6].startTime = 56ms
*.host2.app[6].stopTime = 69ms
*.host2.app[6].display-name = "type2_7"
*.host2.app[6].destPort = 1000
*.host2.app[7].typename = "UdpBasicApp"
*.host2.app[7].destAddresses = "host9"
*.host2.app[7].source.packetNameFormat = "%M-%m-%c"
*.host2.app[7].source.displayStringTextFormat = "sent %p pk (%l)"
*.host2.app[7].messageLength = 15B
*.host2.app[7].sendInterval = 1ms
*.host2.app[7].startTime = 74ms
*.host2.app[7].stopTime = 78ms
*.host2.app[7].display-name = "type2_7"
*.host2.app[7].destPort = 1000
*.host2.app[8].typename = "UdpBasicApp"
*.host2.app[8].destAddresses = "host9"
*.host2.app[8].source.packetNameFormat = "%M-%m-%c"
*.host2.app[8].source.displayStringTextFormat = "sent %p pk (%l)"
*.host2.app[8].messageLength = 15B
*.host2.app[8].sendInterval = 1ms
*.host2.app[8].startTime = 80ms
*.host2.app[8].stopTime = 99ms
*.host2.app[8].display-name = "type2_7"
*.host2.app[8].destPort = 1000
*.host2.app[9].typename = "UdpSinkApp"
*.host2.app[9].io.localPort = 1003
*.host3.numApps = 11
*.host3.app[0].typename = "UdpSinkApp"
*.host3.app[0].io.localPort = 1000
*.host3.app[1].typename = "UdpSinkApp"
*.host3.app[1].io.localPort = 1001
*.host3.app[2].typename = "UdpBasicApp"
*.host3.app[2].destAddresses = "host1"
*.host3.app[2].source.packetNameFormat = "%M-%m-%c"
*.host3.app[2].source.displayStringTextFormat = "sent %p pk (%l)"
*.host3.app[2].messageLength = 24B
*.host3.app[2].sendInterval = 1ms
*.host3.app[2].startTime = 16ms
*.host3.app[2].stopTime = 21ms
*.host3.app[2].display-name = "type2_2"
*.host3.app[2].destPort = 1001
*.host3.app[3].typename = "UdpBasicApp"
*.host3.app[3].destAddresses = "host1"
*.host3.app[3].source.packetNameFormat = "%M-%m-%c"
*.host3.app[3].source.displayStringTextFormat = "sent %p pk (%l)"
*.host3.app[3].messageLength = 24B
*.host3.app[3].sendInterval = 1ms
*.host3.app[3].startTime = 54ms
*.host3.app[3].stopTime = 56ms
*.host3.app[3].display-name = "type2_2"
*.host3.app[3].destPort = 1001
*.host3.app[4].typename = "UdpBasicApp"
*.host3.app[4].destAddresses = "host1"
*.host3.app[4].source.packetNameFormat = "%M-%m-%c"
*.host3.app[4].source.displayStringTextFormat = "sent %p pk (%l)"
*.host3.app[4].messageLength = 24B
*.host3.app[4].sendInterval = 1ms
*.host3.app[4].startTime = 62ms
*.host3.app[4].stopTime = 85ms
*.host3.app[4].display-name = "type2_2"
*.host3.app[4].destPort = 1001
*.host3.app[5].typename = "UdpBasicApp"
*.host3.app[5].destAddresses = "host1"
*.host3.app[5].source.packetNameFormat = "%M-%m-%c"
*.host3.app[5].source.displayStringTextFormat = "sent %p pk (%l)"
*.host3.app[5].messageLength = 24B
*.host3.app[5].sendInterval = 1ms
*.host3.app[5].startTime = 95ms
*.host3.app[5].stopTime = 100ms
*.host3.app[5].display-name = "type2_2"
*.host3.app[5].destPort = 1001
*.host3.app[6].typename = "UdpBasicApp"
*.host3.app[6].destAddresses = "host2"
*.host3.app[6].source.packetNameFormat = "%M-%m-%c"
*.host3.app[6].source.displayStringTextFormat = "sent %p pk (%l)"
*.host3.app[6].messageLength = 15B
*.host3.app[6].sendInterval = 1ms
*.host3.app[6].startTime = 6ms
*.host3.app[6].stopTime = 23ms
*.host3.app[6].display-name = "type2_5"
*.host3.app[6].destPort = 1002
*.host3.app[7].typename = "UdpBasicApp"
*.host3.app[7].destAddresses = "host2"
*.host3.app[7].source.packetNameFormat = "%M-%m-%c"
*.host3.app[7].source.displayStringTextFormat = "sent %p pk (%l)"
*.host3.app[7].messageLength = 15B
*.host3.app[7].sendInterval = 1ms
*.host3.app[7].startTime = 27ms
*.host3.app[7].stopTime = 34ms
*.host3.app[7].display-name = "type2_5"
*.host3.app[7].destPort = 1002
*.host3.app[8].typename = "UdpBasicApp"
*.host3.app[8].destAddresses = "host2"
*.host3.app[8].source.packetNameFormat = "%M-%m-%c"
*.host3.app[8].source.displayStringTextFormat = "sent %p pk (%l)"
*.host3.app[8].messageLength = 15B
*.host3.app[8].sendInterval = 1ms
*.host3.app[8].startTime = 50ms
*.host3.app[8].stopTime = 64ms
*.host3.app[8].display-name = "type2_5"
*.host3.app[8].destPort = 1002
*.host3.app[9].typename = "UdpBasicApp"
*.host3.app[9].destAddresses = "host2"
*.host3.app[9].source.packetNameFormat = "%M-%m-%c"
*.host3.app[9].source.displayStringTextFormat = "sent %p pk (%l)"
*.host3.app[9].messageLength = 15B
*.host3.app[9].sendInterval = 1ms
*.host3.app[9].startTime = 75ms
*.host3.app[9].stopTime = 82ms
*.host3.app[9].display-name = "type2_5"
*.host3.app[9].destPort = 1002
*.host3.app[10].typename = "UdpBasicApp"
*.host3.app[10].destAddresses = "host2"
*.host3.app[10].source.packetNameFormat = "%M-%m-%c"
*.host3.app[10].source.displayStringTextFormat = "sent %p pk (%l)"
*.host3.app[10].messageLength = 15B
*.host3.app[10].sendInterval = 1ms
*.host3.app[10].startTime = 92ms
*.host3.app[10].stopTime = 94ms
*.host3.app[10].display-name = "type2_5"
*.host3.app[10].destPort = 1002
*.host4.numApps = 4
*.host4.app[0].typename = "UdpSinkApp"
*.host4.app[0].io.localPort = 1000
*.host4.app[1].typename = "UdpBasicApp"
*.host4.app[1].destAddresses = "host2"
*.host4.app[1].source.packetNameFormat = "%M-%m-%c"
*.host4.app[1].source.displayStringTextFormat = "sent %p pk (%l)"
*.host4.app[1].messageLength = 14B
*.host4.app[1].sendInterval = 1ms
*.host4.app[1].startTime = 3ms
*.host4.app[1].stopTime = 7ms
*.host4.app[1].display-name = "type2_1"
*.host4.app[1].destPort = 1001
*.host4.app[2].typename = "UdpBasicApp"
*.host4.app[2].destAddresses = "host2"
*.host4.app[2].source.packetNameFormat = "%M-%m-%c"
*.host4.app[2].source.displayStringTextFormat = "sent %p pk (%l)"
*.host4.app[2].messageLength = 14B
*.host4.app[2].sendInterval = 1ms
*.host4.app[2].startTime = 26ms
*.host4.app[2].stopTime = 39ms
*.host4.app[2].display-name = "type2_1"
*.host4.app[2].destPort = 1001
*.host4.app[3].typename = "UdpBasicApp"
*.host4.app[3].destAddresses = "host2"
*.host4.app[3].source.packetNameFormat = "%M-%m-%c"
*.host4.app[3].source.displayStringTextFormat = "sent %p pk (%l)"
*.host4.app[3].messageLength = 14B
*.host4.app[3].sendInterval = 1ms
*.host4.app[3].startTime = 57ms
*.host4.app[3].stopTime = 99ms
*.host4.app[3].display-name = "type2_1"
*.host4.app[3].destPort = 1001
*.host5.numApps = 6
*.host5.app[0].typename = "UdpSourceApp"
*.host5.app[0].io.destAddress = "host6"
*.host5.app[0].source.packetNameFormat = "%M-%m-%c"
*.host5.app[0].source.displayStringTextFormat = "sent %p pk (%l)"
*.host5.app[0].source.packetLength = 15B
*.host5.app[0].source.productionInterval = 1ms
*.host5.app[0].display-name = "type1_0"
*.host5.app[0].io.destPort = 1000
*.host5.app[1].typename = "UdpSinkApp"
*.host5.app[1].io.localPort = 1000
*.host5.app[2].typename = "UdpBasicApp"
*.host5.app[2].destAddresses = "host7"
*.host5.app[2].source.packetNameFormat = "%M-%m-%c"
*.host5.app[2].source.displayStringTextFormat = "sent %p pk (%l)"
*.host5.app[2].messageLength = 16B
*.host5.app[2].sendInterval = 1ms
*.host5.app[2].startTime = 17ms
*.host5.app[2].stopTime = 20ms
*.host5.app[2].display-name = "type2_9"
*.host5.app[2].destPort = 1003
*.host5.app[3].typename = "UdpBasicApp"
*.host5.app[3].destAddresses = "host7"
*.host5.app[3].source.packetNameFormat = "%M-%m-%c"
*.host5.app[3].source.displayStringTextFormat = "sent %p pk (%l)"
*.host5.app[3].messageLength = 16B
*.host5.app[3].sendInterval = 1ms
*.host5.app[3].startTime = 40ms
*.host5.app[3].stopTime = 53ms
*.host5.app[3].display-name = "type2_9"
*.host5.app[3].destPort = 1003
*.host5.app[4].typename = "UdpBasicApp"
*.host5.app[4].destAddresses = "host7"
*.host5.app[4].source.packetNameFormat = "%M-%m-%c"
*.host5.app[4].source.displayStringTextFormat = "sent %p pk (%l)"
*.host5.app[4].messageLength = 16B
*.host5.app[4].sendInterval = 1ms
*.host5.app[4].startTime = 57ms
*.host5.app[4].stopTime = 61ms
*.host5.app[4].display-name = "type2_9"
*.host5.app[4].destPort = 1003
*.host5.app[5].typename = "UdpBasicApp"
*.host5.app[5].destAddresses = "host7"
*.host5.app[5].source.packetNameFormat = "%M-%m-%c"
*.host5.app[5].source.displayStringTextFormat = "sent %p pk (%l)"
*.host5.app[5].messageLength = 16B
*.host5.app[5].sendInterval = 1ms
*.host5.app[5].startTime = 88ms
*.host5.app[5].stopTime = 100ms
*.host5.app[5].display-name = "type2_9"
*.host5.app[5].destPort = 1003
*.host6.numApps = 13
*.host6.app[0].typename = "UdpSinkApp"
*.host6.app[0].io.localPort = 1000
*.host6.app[1].typename = "UdpSinkApp"
*.host6.app[1].io.localPort = 1001
*.host6.app[2].typename = "UdpSinkApp"
*.host6.app[2].io.localPort = 1002
*.host6.app[3].typename = "UdpSourceApp"
*.host6.app[3].io.destAddress = "host1"
*.host6.app[3].source.packetNameFormat = "%M-%m-%c"
*.host6.app[3].source.displayStringTextFormat = "sent %p pk (%l)"
*.host6.app[3].source.packetLength = 21B
*.host6.app[3].source.productionInterval = 1ms
*.host6.app[3].display-name = "type1_8"
*.host6.app[3].io.destPort = 1000
*.host6.app[4].typename = "UdpBasicApp"
*.host6.app[4].destAddresses = "host7"
*.host6.app[4].source.packetNameFormat = "%M-%m-%c"
*.host6.app[4].source.displayStringTextFormat = "sent %p pk (%l)"
*.host6.app[4].messageLength = 14B
*.host6.app[4].sendInterval = 1ms
*.host6.app[4].startTime = 2ms
*.host6.app[4].stopTime = 3ms
*.host6.app[4].display-name = "type2_0"
*.host6.app[4].destPort = 1001
*.host6.app[5].typename = "UdpBasicApp"
*.host6.app[5].destAddresses = "host7"
*.host6.app[5].source.packetNameFormat = "%M-%m-%c"
*.host6.app[5].source.displayStringTextFormat = "sent %p pk (%l)"
*.host6.app[5].messageLength = 14B
*.host6.app[5].sendInterval = 1ms
*.host6.app[5].startTime = 6ms
*.host6.app[5].stopTime = 12ms
*.host6.app[5].display-name = "type2_0"
*.host6.app[5].destPort = 1001
*.host6.app[6].typename = "UdpBasicApp"
*.host6.app[6].destAddresses = "host7"
*.host6.app[6].source.packetNameFormat = "%M-%m-%c"
*.host6.app[6].source.displayStringTextFormat = "sent %p pk (%l)"
*.host6.app[6].messageLength = 14B
*.host6.app[6].sendInterval = 1ms
*.host6.app[6].startTime = 18ms
*.host6.app[6].stopTime = 49ms
*.host6.app[6].display-name = "type2_0"
*.host6.app[6].destPort = 1001
*.host6.app[7].typename = "UdpBasicApp"
*.host6.app[7].destAddresses = "host7"
*.host6.app[7].source.packetNameFormat = "%M-%m-%c"
*.host6.app[7].source.displayStringTextFormat = "sent %p pk (%l)"
*.host6.app[7].messageLength = 14B
*.host6.app[7].sendInterval = 1ms
*.host6.app[7].startTime = 50ms
*.host6.app[7].stopTime = 61ms
*.host6.app[7].display-name = "type2_0"
*.host6.app[7].destPort = 1001
*.host6.app[8].typename = "UdpBasicApp"
*.host6.app[8].destAddresses = "host7"
*.host6.app[8].source.packetNameFormat = "%M-%m-%c"
*.host6.app[8].source.displayStringTextFormat = "sent %p pk (%l)"
*.host6.app[8].messageLength = 14B
*.host6.app[8].sendInterval = 1ms
*.host6.app[8].startTime = 65ms
*.host6.app[8].stopTime = 72ms
*.host6.app[8].display-name = "type2_0"
*.host6.app[8].destPort = 1001
*.host6.app[9].typename = "UdpBasicApp"
*.host6.app[9].destAddresses = "host7"
*.host6.app[9].source.packetNameFormat = "%M-%m-%c"
*.host6.app[9].source.displayStringTextFormat = "sent %p pk (%l)"
*.host6.app[9].messageLength = 14B
*.host6.app[9].sendInterval = 1ms
*.host6.app[9].startTime = 74ms
*.host6.app[9].stopTime = 76ms
*.host6.app[9].display-name = "type2_0"
*.host6.app[9].destPort = 1001
*.host6.app[10].typename = "UdpBasicApp"
*.host6.app[10].destAddresses = "host7"
*.host6.app[10].source.packetNameFormat = "%M-%m-%c"
*.host6.app[10].source.displayStringTextFormat = "sent %p pk (%l)"
*.host6.app[10].messageLength = 14B
*.host6.app[10].sendInterval = 1ms
*.host6.app[10].startTime = 84ms
*.host6.app[10].stopTime = 85ms
*.host6.app[10].display-name = "type2_0"
*.host6.app[10].destPort = 1001
*.host6.app[11].typename = "UdpBasicApp"
*.host6.app[11].destAddresses = "host7"
*.host6.app[11].source.packetNameFormat = "%M-%m-%c"
*.host6.app[11].source.displayStringTextFormat = "sent %p pk (%l)"
*.host6.app[11].messageLength = 14B
*.host6.app[11].sendInterval = 1ms
*.host6.app[11].startTime = 95ms
*.host6.app[11].stopTime = 96ms
*.host6.app[11].display-name = "type2_0"
*.host6.app[11].destPort = 1001
*.host6.app[12].typename = "UdpSinkApp"
*.host6.app[12].io.localPort = 1003
*.host7.numApps = 12
*.host7.app[0].typename = "UdpSinkApp"
*.host7.app[0].io.localPort = 1000
*.host7.app[1].typename = "UdpSinkApp"
*.host7.app[1].io.localPort = 1001
*.host7.app[2].typename = "UdpSinkApp"
*.host7.app[2].io.localPort = 1002
*.host7.app[3].typename = "UdpBasicApp"
*.host7.app[3].destAddresses = "host2"
*.host7.app[3].source.packetNameFormat = "%M-%m-%c"
*.host7.app[3].source.displayStringTextFormat = "sent %p pk (%l)"
*.host7.app[3].messageLength = 14B
*.host7.app[3].sendInterval = 1ms
*.host7.app[3].startTime = 6ms
*.host7.app[3].stopTime = 19ms
*.host7.app[3].display-name = "type2_8"
*.host7.app[3].destPort = 1003
*.host7.app[4].typename = "UdpBasicApp"
*.host7.app[4].destAddresses = "host2"
*.host7.app[4].source.packetNameFormat = "%M-%m-%c"
*.host7.app[4].source.displayStringTextFormat = "sent %p pk (%l)"
*.host7.app[4].messageLength = 14B
*.host7.app[4].sendInterval = 1ms
*.host7.app[4].startTime = 22ms
*.host7.app[4].stopTime = 27ms
*.host7.app[4].display-name = "type2_8"
*.host7.app[4].destPort = 1003
*.host7.app[5].typename = "UdpBasicApp"
*.host7.app[5].destAddresses = "host2"
*.host7.app[5].source.packetNameFormat = "%M-%m-%c"
*.host7.app[5].source.displayStringTextFormat = "sent %p pk (%l)"
*.host7.app[5].messageLength = 14B
*.host7.app[5].sendInterval = 1ms
*.host7.app[5].startTime = 30ms
*.host7.app[5].stopTime = 44ms
*.host7.app[5].display-name = "type2_8"
*.host7.app[5].destPort = 1003
*.host7.app[6].typename = "UdpBasicApp"
*.host7.app[6].destAddresses = "host2"
*.host7.app[6].source.packetNameFormat = "%M-%m-%c"
*.host7.app[6].source.displayStringTextFormat = "sent %p pk (%l)"
*.host7.app[6].messageLength = 14B
*.host7.app[6].sendInterval = 1ms
*.host7.app[6].startTime = 51ms
*.host7.app[6].stopTime = 54ms
*.host7.app[6].display-name = "type2_8"
*.host7.app[6].destPort = 1003
*.host7.app[7].typename = "UdpBasicApp"
*.host7.app[7].destAddresses = "host2"
*.host7.app[7].source.packetNameFormat = "%M-%m-%c"
*.host7.app[7].source.displayStringTextFormat = "sent %p pk (%l)"
*.host7.app[7].messageLength = 14B
*.host7.app[7].sendInterval = 1ms
*.host7.app[7].startTime = 66ms
*.host7.app[7].stopTime = 67ms
*.host7.app[7].display-name = "type2_8"
*.host7.app[7].destPort = 1003
*.host7.app[8].typename = "UdpBasicApp"
*.host7.app[8].destAddresses = "host2"
*.host7.app[8].source.packetNameFormat = "%M-%m-%c"
*.host7.app[8].source.displayStringTextFormat = "sent %p pk (%l)"
*.host7.app[8].messageLength = 14B
*.host7.app[8].sendInterval = 1ms
*.host7.app[8].startTime = 76ms
*.host7.app[8].stopTime = 77ms
*.host7.app[8].display-name = "type2_8"
*.host7.app[8].destPort = 1003
*.host7.app[9].typename = "UdpBasicApp"
*.host7.app[9].destAddresses = "host2"
*.host7.app[9].source.packetNameFormat = "%M-%m-%c"
*.host7.app[9].source.displayStringTextFormat = "sent %p pk (%l)"
*.host7.app[9].messageLength = 14B
*.host7.app[9].sendInterval = 1ms
*.host7.app[9].startTime = 93ms
*.host7.app[9].stopTime = 96ms
*.host7.app[9].display-name = "type2_8"
*.host7.app[9].destPort = 1003
*.host7.app[10].typename = "UdpBasicApp"
*.host7.app[10].destAddresses = "host2"
*.host7.app[10].source.packetNameFormat = "%M-%m-%c"
*.host7.app[10].source.displayStringTextFormat = "sent %p pk (%l)"
*.host7.app[10].messageLength = 14B
*.host7.app[10].sendInterval = 1ms
*.host7.app[10].startTime = 97ms
*.host7.app[10].stopTime = 100ms
*.host7.app[10].display-name = "type2_8"
*.host7.app[10].destPort = 1003
*.host7.app[11].typename = "UdpSinkApp"
*.host7.app[11].io.localPort = 1003
*.host8.numApps = 5
*.host8.app[0].typename = "UdpSourceApp"
*.host8.app[0].io.destAddress = "host3"
*.host8.app[0].source.packetNameFormat = "%M-%m-%c"
*.host8.app[0].source.displayStringTextFormat = "sent %p pk (%l)"
*.host8.app[0].source.packetLength = 23B
*.host8.app[0].source.productionInterval = 1ms
*.host8.app[0].display-name = "type1_1"
*.host8.app[0].io.destPort = 1000
*.host8.app[1].typename = "UdpSourceApp"
*.host8.app[1].io.destAddress = "host6"
*.host8.app[1].source.packetNameFormat = "%M-%m-%c"
*.host8.app[1].source.displayStringTextFormat = "sent %p pk (%l)"
*.host8.app[1].source.packetLength = 23B
*.host8.app[1].source.productionInterval = 1ms
*.host8.app[1].display-name = "type1_2"
*.host8.app[1].io.destPort = 1001
*.host8.app[2].typename = "UdpSourceApp"
*.host8.app[2].io.destAddress = "host2"
*.host8.app[2].source.packetNameFormat = "%M-%m-%c"
*.host8.app[2].source.displayStringTextFormat = "sent %p pk (%l)"
*.host8.app[2].source.packetLength = 22B
*.host8.app[2].source.productionInterval = 1ms
*.host8.app[2].display-name = "type1_3"
*.host8.app[2].io.destPort = 1000
*.host8.app[3].typename = "UdpSinkApp"
*.host8.app[3].io.localPort = 1000
*.host8.app[4].typename = "UdpBasicApp"
*.host8.app[4].destAddresses = "host6"
*.host8.app[4].source.packetNameFormat = "%M-%m-%c"
*.host8.app[4].source.displayStringTextFormat = "sent %p pk (%l)"
*.host8.app[4].messageLength = 14B
*.host8.app[4].sendInterval = 1ms
*.host8.app[4].startTime = 89ms
*.host8.app[4].stopTime = 98ms
*.host8.app[4].display-name = "type2_4"
*.host8.app[4].destPort = 1003
*.host9.numApps = 9
*.host9.app[0].typename = "UdpSourceApp"
*.host9.app[0].io.destAddress = "host4"
*.host9.app[0].source.packetNameFormat = "%M-%m-%c"
*.host9.app[0].source.displayStringTextFormat = "sent %p pk (%l)"
*.host9.app[0].source.packetLength = 23B
*.host9.app[0].source.productionInterval = 1ms
*.host9.app[0].display-name = "type1_6"
*.host9.app[0].io.destPort = 1000
*.host9.app[1].typename = "UdpSourceApp"
*.host9.app[1].io.destAddress = "host3"
*.host9.app[1].source.packetNameFormat = "%M-%m-%c"
*.host9.app[1].source.displayStringTextFormat = "sent %p pk (%l)"
*.host9.app[1].source.packetLength = 14B
*.host9.app[1].source.productionInterval = 1ms
*.host9.app[1].display-name = "type1_7"
*.host9.app[1].io.destPort = 1001
*.host9.app[2].typename = "UdpBasicApp"
*.host9.app[2].destAddresses = "host7"
*.host9.app[2].source.packetNameFormat = "%M-%m-%c"
*.host9.app[2].source.displayStringTextFormat = "sent %p pk (%l)"
*.host9.app[2].messageLength = 16B
*.host9.app[2].sendInterval = 1ms
*.host9.app[2].startTime = 3ms
*.host9.app[2].stopTime = 9ms
*.host9.app[2].display-name = "type2_6"
*.host9.app[2].destPort = 1002
*.host9.app[3].typename = "UdpBasicApp"
*.host9.app[3].destAddresses = "host7"
*.host9.app[3].source.packetNameFormat = "%M-%m-%c"
*.host9.app[3].source.displayStringTextFormat = "sent %p pk (%l)"
*.host9.app[3].messageLength = 16B
*.host9.app[3].sendInterval = 1ms
*.host9.app[3].startTime = 26ms
*.host9.app[3].stopTime = 41ms
*.host9.app[3].display-name = "type2_6"
*.host9.app[3].destPort = 1002
*.host9.app[4].typename = "UdpBasicApp"
*.host9.app[4].destAddresses = "host7"
*.host9.app[4].source.packetNameFormat = "%M-%m-%c"
*.host9.app[4].source.displayStringTextFormat = "sent %p pk (%l)"
*.host9.app[4].messageLength = 16B
*.host9.app[4].sendInterval = 1ms
*.host9.app[4].startTime = 46ms
*.host9.app[4].stopTime = 53ms
*.host9.app[4].display-name = "type2_6"
*.host9.app[4].destPort = 1002
*.host9.app[5].typename = "UdpBasicApp"
*.host9.app[5].destAddresses = "host7"
*.host9.app[5].source.packetNameFormat = "%M-%m-%c"
*.host9.app[5].source.displayStringTextFormat = "sent %p pk (%l)"
*.host9.app[5].messageLength = 16B
*.host9.app[5].sendInterval = 1ms
*.host9.app[5].startTime = 60ms
*.host9.app[5].stopTime = 61ms
*.host9.app[5].display-name = "type2_6"
*.host9.app[5].destPort = 1002
*.host9.app[6].typename = "UdpBasicApp"
*.host9.app[6].destAddresses = "host7"
*.host9.app[6].source.packetNameFormat = "%M-%m-%c"
*.host9.app[6].source.displayStringTextFormat = "sent %p pk (%l)"
*.host9.app[6].messageLength = 16B
*.host9.app[6].sendInterval = 1ms
*.host9.app[6].startTime = 65ms
*.host9.app[6].stopTime = 66ms
*.host9.app[6].display-name = "type2_6"
*.host9.app[6].destPort = 1002
*.host9.app[7].typename = "UdpBasicApp"
*.host9.app[7].destAddresses = "host7"
*.host9.app[7].source.packetNameFormat = "%M-%m-%c"
*.host9.app[7].source.displayStringTextFormat = "sent %p pk (%l)"
*.host9.app[7].messageLength = 16B
*.host9.app[7].sendInterval = 1ms
*.host9.app[7].startTime = 82ms
*.host9.app[7].stopTime = 85ms
*.host9.app[7].display-name = "type2_6"
*.host9.app[7].destPort = 1002
*.host9.app[8].typename = "UdpSinkApp"
*.host9.app[8].io.localPort = 1000
*.streamRedundancyConfigurator.configuration = [
	{
		name: "S1-0",
		packetFilter: "*-type1_0-*",
		source: "host5",
		destination: "host6",
		trees: [[["host5", "switch5", "switch2", "switch4", "switch6", "host6"]]]