[General]
network = TSN_multipath
sim-time-limit = 100ms
*.macForwardingTableConfigurator.typename = ""
*.*.hasStreamRedundancy = true
*.*.bridging.streamRelay.typename = "StreamRelayLayer"
*.*.bridging.streamCoder.typename = "StreamCoderLayer"
*.streamRedundancyConfigurator.typename = "StreamRedundancyConfigurator"
*.host0.eth[0].bitrate = 1000Mbps
*.switch0.eth[0].bitrate = 1000Mbps
*.switch0.eth[1].bitrate = 1800Mbps
*.switch0.eth[2].bitrate = 2300Mbps
*.switch0.eth[3].bitrate = 1600Mbps
*.switch0.eth[4].bitrate = 1600Mbps
*.switch0.eth[5].bitrate = 1600Mbps
*.switch0.eth[6].bitrate = 1900Mbps
*.switch0.eth[7].bitrate = 1500Mbps
*.host1.eth[0].bitrate = 1000Mbps
*.switch1.eth[0].bitrate = 1000Mbps
*.switch1.eth[1].bitrate = 1800Mbps
*.switch1.eth[2].bitrate = 1400Mbps
*.switch1.eth[3].bitrate = 2200Mbps
*.switch1.eth[4].bitrate = 2100Mbps
*.switch1.eth[5].bitrate = 1200Mbps
*.switch1.eth[6].bitrate = 1500Mbps
*.switch1.eth[7].bitrate = 1400Mbps
*.host2.eth[0].bitrate = 1000Mbps
*.switch2.eth[0].bitrate = 1000Mbps
*.switch2.eth[1].bitrate = 1400Mbps
*.switch2.eth[2].bitrate = 1600Mbps
*.switch2.eth[3].bitrate = 1500Mbps
*.switch2.eth[4].bitrate = 1400Mbps
*.switch2.eth[5].bitrate = 2000Mbps
*.switch2.eth[6].bitrate = 1200Mbps
*.switch2.eth[7].bitrate = 2400Mbps
*.switch2.eth[8].bitrate = 1700Mbps
*.switch2.eth[9].bitrate = 1600Mbps
*.host3.eth[0].bitrate = 1000Mbps
*.switch3.eth[0].bitrate = 1000Mbps
*.switch3.eth[1].bitrate = 1500Mbps
*.switch3.eth[2].bitrate = 2100Mbps
*.switch3.eth[3].bitrate = 2200Mbps
*.switch3.eth[4].bitrate = 2000Mbps
*.switch3.eth[5].bitrate = 1900Mbps
*.switch3.eth[6].bitrate = 2200Mbps
*.switch3.eth[7].bitrate = 1300Mbps
*.host4.eth[0].bitrate = 1000Mbps
*.switch4.eth[0].bitrate = 1000Mbps
*.switch4.eth[1].bitrate = 2300Mbps
*.switch4.eth[2].bitrate = 2200Mbps
*.switch4.eth[3].bitrate = 2200Mbps
*.switch4.eth[4].bitrate = 1200Mbps
*.switch4.eth[5].bitrate = 1900Mbps
*.switch4.eth[6].bitrate = 2400Mbps
*.host5.eth[0].bitrate = 1000Mbps
*.switch5.eth[0].bitrate = 1000Mbps
*.switch5.eth[1].bitrate = 1400Mbps
*.switch5.eth[2].bitrate = 2000Mbps
*.switch5.eth[3].bitrate = 1600Mbps
*.switch5.eth[4].bitrate = 1200Mbps
*.switch5.eth[5].bitrate = 2400Mbps
*.switch5.eth[6].bitrate = 2200Mbps
*.switch5.eth[7].bitrate = 2400Mbps
*.switch5.eth[8].bitrate = 1500Mbps
*.switch5.eth[9].bitrate = 1900Mbps
*.switch5.eth[10].bitrate = 2300Mbps
*.switch5.eth[11].bitrate = 2100Mbps
*.host6.eth[0].bitrate = 1000Mbps
*.switch6.eth[0].bitrate = 1000Mbps
*.switch6.eth[1].bitrate = 1600Mbps
*.switch6.eth[2].bitrate = 1500Mbps
*.switch6.eth[3].bitrate = 1500Mbps
*.switch6.eth[4].bitrate = 1900Mbps
*.host7.eth[0].bitrate = 1000Mbps
*.switch7.eth[0].bitrate = 1000Mbps
*.switch7.eth[1].bitrate = 1900Mbps
*.switch7.eth[2].bitrate = 1900Mbps
*.switch7.eth[3].bitrate = 1900Mbps
*.switch7.eth[4].bitrate = 1800Mbps
*.switch7.eth[5].bitrate = 2300Mbps
*.switch7.eth[6].bitrate = 1900Mbps
*.host8.eth[0].bitrate = 1000Mbps
*.switch8.eth[0].bitrate = 1000Mbps
*.switch8.eth[1].bitrate = 2000Mbps
*.switch8.eth[2].bitrate = 1900Mbps
*.switch8.eth[3].bitrate = 1800Mbps
*.switch8.eth[4].bitrate = 1500Mbps
*.switch8.eth[5].bitrate = 1400Mbps
*.switch8.eth[6].bitrate = 1700Mbps
*.switch8.eth[7].bitrate = 1300Mbps
*.switch8.eth[8].bitrate = 1900Mbps
*.switch8.eth[9].bitrate = 2400Mbps
*.host9.eth[0].bitrate = 1000Mbps
*.switch9.eth[0].bitrate = 1000Mbps
*.switch9.eth[1].bitrate = 2300Mbps
*.switch9.eth[2].bitrate = 2300Mbps
*.switch9.eth[3].bitrate = 2400Mbps
*.switch9.eth[4].bitrate = 1600Mbps
*.switch9.eth[5].bitrate = 2100Mbps
*.switch9.eth[6].bitrate = 1900Mbps
*.host0.numApps = 15
*.host0.app[0].typename = "UdpSourceApp"
*.host0.app[0].io.destAddress = "host1"
*.host0.app[0].source.packetNameFormat = "%M-%m-%c"
*.host0.app[0].source.displayStringTextFormat = "sent %p pk (%l)"
*.host0.app[0].source.packetLength = 22B
*.host0.app[0].source.productionInterval = 1ms
*.host0.app[0].display-name = "type1_0"
*.host0.app[0].io.destPort = 1000
*.host0.app[1].typename = "UdpSinkApp"
*.host0.app[1].io.localPort = 1000
*.host0.app[2].typename = "UdpBasicApp"
*.host0.app[2].destAddresses = "host5"
*.host0.app[2].source.packetNameFormat = "%M-%m-%c"
*.host0.app[2].source.displayStringTextFormat = "sent %p pk (%l)"
*.host0.app[2].messageLength = 19B
*.host0.app[2].sendInterval = 1ms
*.host0.app[2].startTime = 1ms
*.host0.app[2].stopTime = 17ms
*.host0.app[2].display-name = "type2_2"
*.host0.app[2].destPort = 1000
*.host0.app[3].typename = "UdpBasicApp"
*.host0.app[3].destAddresses = "host5"
*.host0.app[3].source.packetNameFormat = "%M-%m-%c"
*.host0.app[3].source.displayStringTextFormat = "sent %p pk (%l)"
*.host0.app[3].messageLength = 19B
*.host0.app[3].sendInterval = 1ms
*.host0.app[3].startTime = 25ms
*.host0.app[3].stopTime = 28ms
*.host0.app[3].display-name = "type2_2"
*.host0.app[3].destPort = 1000
*.host0.app[4].typename = "UdpBasicApp"
*.host0.app[4].destAddresses = "host5"
*.host0.app[4].source.packetNameFormat = "%M-%m-%c"
*.host0.app[4].source.displayStringTextFormat = "sent %p pk (%l)"
*.host0.app[4].messageLength = 19B
*.host0.app[4].sendInterval = 1ms
*.host0.app[4].startTime = 31ms
*.host0.app[4].stopTime = 33ms
*.host0.app[4].display-name = "type2_2"
*.host0.app[4].destPort = 1000
*.host0.app[5].typename = "UdpBasicApp"
*.host0.app[5].destAddresses = "host5"
*.host0.app[5].source.packetNameFormat = "%M-%m-%c"
*.host0.app[5].source.displayStringTextFormat = "sent %p pk (%l)"
*.host0.app[5].messageLength = 19B
*.host0.app[5].sendInterval = 1ms
*.host0.app[5].startTime = 55ms
*.host0.app[5].stopTime = 58ms
*.host0.app[5].display-name = "type2_2"
*.host0.app[5].destPort = 1000
*.host0.app[6].typename = "UdpBasicApp"
*.host0.app[6].destAddresses = "host5"
*.host0.app[6].source.packetNameFormat = "%M-%m-%c"
*.host0.app[6].source.displayStringTextFormat = "sent %p pk (%l)"
*.host0.app[6].messageLength = 19B
*.host0.app[6].sendInterval = 1ms
*.host0.app[6].startTime = 61ms
*.host0.app[6].stopTime = 66ms
*.host0.app[6].display-name = "type2_2"
*.host0.app[6].destPort = 1000
*.host0.app[7].typename = "UdpBasicApp"
*.host0.app[7].destAddresses = "host5"
*.host0.app[7].source.packetNameFormat = "%M-%m-%c"
*.host0.app[7].source.displayStringTextFormat = "sent %p pk (%l)"
*.host0.app[7].messageLength = 19B
*.host0.app[7].sendInterval = 1ms
*.host0.app[7].startTime = 67ms
*.host0.app[7].stopTime = 73ms
*.host0.app[7].display-name = "type2_2"
*.host0.app[7].destPort = 1000
*.host0.app[8].typename = "UdpBasicApp"
*.host0.app[8].destAddresses = "host5"
*.host0.app[8].source.packetNameFormat = "%M-%m-%c"
*.host0.app[8].source.displayStringTextFormat = "sent %p pk (%l)"
*.host0.app[8].messageLength = 19B
*.host0.app[8].sendInterval = 1ms
*.host0.app[8].startTime = 98ms
*.host0.app[8].stopTime = 100ms
*.host0.app[8].display-name = "type2_2"
*.host0.app[8].destPort = 1000
*.host0.app[9].typename = "UdpBasicApp"
*.host0.app[9].destAddresses = "host8"
*.host0.app[9].source.packetNameFormat = "%M-%m-%c"
*.host0.app[9].source.displayStringTextFormat = "sent %p pk (%l)"
*.host0.app[9].messageLength = 22B
*.host0.app[9].sendInterval = 1ms
*.host0.app[9].startTime = 6ms
*.host0.app[9].stopTime = 21ms
*.host0.app[9].display-name = "type2_7"
*.host0.app[9].destPort = 1001
*.host0.app[10].typename = "UdpBasicApp"
*.host0.app[10].destAddresses = "host8"
*.host0.app[10].source.packetNameFormat = "%M-%m-%c"
*.host0.app[10].source.displayStringTextFormat = "sent %p pk (%l)"
*.host0.app[10].messageLength = 22B
*.host0.app[10].sendInterval = 1ms
*.host0.app[10].startTime = 29ms
*.host0.app[10].stopTime = 30ms
*.host0.app[10].display-name = "type2_7"
*.host0.app[10].destPort = 1001
*.host0.app[11].typename = "UdpBasicApp"
*.host0.app[11].destAddresses = "host8"
*.host0.app[11].source.packetNameFormat = "%M-%m-%c"
*.host0.app[11].source.displayStringTextFormat = "sent %p pk (%l)"
*.host0.app[11].messageLength = 22B
*.host0.app[11].sendInterval = 1ms
*.host0.app[11].startTime = 32ms
*.host0.app[11].stopTime = 34ms
*.host0.app[11].display-name = "type2_7"
*.host0.app[11].destPort = 1001
*.host0.app[12].typename = "UdpBasicApp"
*.host0.app[12].destAddresses = "host8"
*.host0.app[12].source.packetNameFormat = "%M-%m-%c"
*.host0.app[12].source.displayStringTextFormat = "sent %p pk (%l)"
*.host0.app[12].messageLength = 22B
*.host0.app[12].sendInterval = 1ms
*.host0.app[12].startTime = 39ms
*.host0.app[12].stopTime = 59ms
*.host0.app[12].display-name = "type2_7"
*.host0.app[12].destPort = 1001
*.host0.app[13].typename = "UdpBasicApp"
*.host0.app[13].destAddresses = "host8"
*.host0.app[13].source.packetNameFormat = "%M-%m-%c"
*.host0.app[13].source.displayStringTextFormat = "sent %p pk (%l)"
*.host0.app[13].messageLength = 22B
*.host0.app[13].sendInterval = 1ms
*.host0.app[13].startTime = 64ms
*.host0.app[13].stopTime = 68ms
*.host0.app[13].display-name = "type2_7"
*.host0.app[13].destPort = 1001
*.host0.app[14].typename = "UdpBasicApp"
*.host0.app[14].destAddresses = "host8"
*.host0.app[14].source.packetNameFormat = "%M-%m-%c"
*.host0.app[14].source.displayStringTextFormat = "sent %p pk (%l)"
*.host0.app[14].messageLength = 22B
*.host0.app[14].sendInterval = 1ms
*.host0.app[14].startTime = 76ms
*.host0.app[14].stopTime = 95ms
*.host0.app[14].display-name = "type2_7"
*.host0.app[14].destPort = 1001
*.host1.numApps = 3
*.host1.app[0].typename = "UdpSinkApp"
*.host1.app[0].io.localPort = 1000
*.host1.app[1].typename = "UdpSinkApp"
*.host1.app[1].io.localPort = 1001
*.host1.app[2].typename = "UdpSinkApp"
*.host1.app[2].io.localPort = 1002
*.host2.numApps = 15
*.host2.app[0].typename = "UdpSinkApp"
*.host2.app[0].io.localPort = 1000
*.host2.app[1].typename = "UdpSourceApp"
*.host2.app[1].io.destAddress = "host9"
*.host2.app[1].source.packetNameFormat = "%M-%m-%c"
*.host2.app[1].source.displayStringTextFormat = "sent %p pk (%l)"
*.host2.app[1].source.packetLength = 15B
*.host2.app[1].source.productionInterval = 1ms
*.host2.app[1].display-name = "type1_3"
*.host2.app[1].io.destPort = 1000
*.host2.app[2].typename = "UdpSourceApp"
*.host2.app[2].io.destAddress = "host0"
*.host2.app[2].source.packetNameFormat = "%M-%m-%c"
*.host2.app[2].source.displayStringTextFormat = "sent %p pk (%l)"
*.host2.app[2].source.packetLength = 24B
*.host2.app[2].source.productionInterval = 1ms
*.host2.app[2].display-name = "type1_6"
*.host2.app[2].io.destPort = 1000
*.host2.app[3].typename = "UdpSourceApp"
*.host2.app[3].io.destAddress = "host1"
*.host2.app[3].source.packetNameFormat = "%M-%m-%c"
*.host2.app[3].source.displayStringTextFormat = "sent %p pk (%l)"
*.host2.app[3].source.packetLength = 17B
*.host2.app[3].source.productionInterval = 1ms
*.host2.app[3].display-name = "type1_9"
*.host2.app[3].io.destPort = 1002
*.host2.app[4].typename = "UdpBasicApp"
*.host2.app[4].destAddresses = "host3"
*.host2.app[4].source.packetNameFormat = "%M-%m-%c"
*.host2.app[4].source.displayStringTextFormat = "sent %p pk (%l)"
*.host2.app[4].messageLength = 24B
*.host2.app[4].sendInterval = 1ms
*.host2.app[4].startTime = 0ms
*.host2.app[4].stopTime = 4ms
*.host2.app[4].display-name = "type2_3"
*.host2.app[4].destPort = 1002
*.host2.app[5].typename = "UdpBasicApp"
*.host2.app[5].destAddresses = "host3"
*.host2.app[5].source.packetNameFormat = "%M-%m-%c"
*.host2.app[5].source.displayStringTextFormat = "sent %p pk (%l)"
*.host2.app[5].messageLength = 24B
*.host2.app[5].sendInterval = 1ms
*.host2.app[5].startTime = 10ms
*.host2.app[5].stopTime = 27ms
*.host2.app[5].display-name = "type2_3"
*.host2.app[5].destPort = 1002
*.host2.app[6].typename = "UdpBasicApp"
*.host2.app[6].destAddresses = "host3"
*.host2.app[6].source.packetNameFormat = "%M-%m-%c"
*.host2.app[6].source.displayStringTextFormat = "sent %p pk (%l)"
*.host2.app[6].messageLength = 24B
*.host2.app[6].sendInterval = 1ms
*.host2.app[6].startTime = 38ms
*.host2.app[6].stopTime = 43ms
*.host2.app[6].display-name = "type2_3"
*.host2.app[6].destPort = 1002
*.host2.app[7].typename = "UdpBasicApp"
*.host2.app[7].destAddresses = "host3"
*.host2.app[7].source.packetNameFormat = "%M-%m-%c"
*.host2.app[7].source.displayStringTextFormat = "sent %p pk (%l)"
*.host2.app[7].messageLength = 24B
*.host2.app[7].sendInterval = 1ms
*.host2.app[7].startTime = 62ms
*.host2.app[7].stopTime = 78ms
*.host2.app[7].display-name = "type2_3"
*.host2.app[7].destPort = 1002
*.host2.app[8].typename = "UdpBasicApp"
*.host2.app[8].destAddresses = "host3"
*.host2.app[8].source.packetNameFormat = "%M-%m-%c"
*.host2.app[8].source.displayStringTextFormat = "sent %p pk (%l)"
*.host2.app[8].messageLength = 24B
*.host2.app[8].sendInterval = 1ms
*.host2.app[8].startTime = 89ms
*.host2.app[8].stopTime = 92ms
*.host2.app[8].display-name = "type2_3"
*.host2.app[8].destPort = 1002
*.host2.app[9].typename = "UdpBasicApp"
*.host2.app[9].destAddresses = "host3"
*.host2.app[9].source.packetNameFormat = "%M-%m-%c"
*.host2.app[9].source.displayStringTextFormat = "sent %p pk (%l)"
*.host2.app[9].messageLength = 24B
*.host2.app[9].sendInterval = 1ms
*.host2.app[9].startTime = 96ms
*.host2.app[9].stopTime = 97ms
*.host2.app[9].display-name = "type2_3"
*.host2.app[9].destPort = 1002
*.host2.app[10].typename = "UdpSinkApp"
*.host2.app[10].io.localPort = 1001
*.host2.app[11].typename = "UdpBasicApp"
*.host2.app[11].destAddresses = "host8"
*.host2.app[11].source.packetNameFormat = "%M-%m-%c"
*.host2.app[11].source.displayStringTextFormat = "sent %p pk (%l)"
*.host2.app[11].messageLength = 19B
*.host2.app[11].sendInterval = 1ms
*.host2.app[11].startTime = 7ms
*.host2.app[11].stopTime = 17ms
*.host2.app[11].display-name = "type2_8"
*.host2.app[11].destPort = 1002
*.host2.app[12].typename = "UdpBasicApp"
*.host2.app[12].destAddresses = "host8"
*.host2.app[12].source.packetNameFormat = "%M-%m-%c"
*.host2.app[12].source.displayStringTextFormat = "sent %p pk (%l)"
*.host2.app[12].messageLength = 19B
*.host2.app[12].sendInterval = 1ms
*.host2.app[12].startTime = 23ms
*.host2.app[12].stopTime = 73ms
*.host2.app[12].display-name = "type2_8"
*.host2.app[12].destPort = 1002
*.host2.app[13].typename = "UdpBasicApp"
*.host2.app[13].destAddresses = "host8"
*.host2.app[13].source.packetNameFormat = "%M-%m-%c"
*.host2.app[13].source.displayStringTextFormat = "sent %p pk (%l)"
*.host2.app[13].messageLength = 19B
*.host2.app[13].sendInterval = 1ms
*.host2.app[13].startTime = 82ms
*.host2.app[13].stopTime = 87ms
*.host2.app[13].display-name = "type2_8"
*.host2.app[13].destPort = 1002
*.host2.app[14].typename = "UdpBasicApp"
*.host2.app[14].destAddresses = "host8"
*.host2.app[14].source.packetNameFormat = "%M-%m-%c"
*.host2.app[14].source.displayStringTextFormat = "sent %p pk (%l)"
*.host2.app[14].messageLength = 19B
*.host2.app[14].sendInterval = 1ms
*.host2.app[14].startTime = 88ms
*.host2.app[14].stopTime = 100ms
*.host2.app[14].display-name = "type2_8"
*.host2.app[14].destPort = 1002
*.host3.numApps = 11
*.host3.app[0].typename = "UdpSinkApp"
*.host3.app[0].io.localPort = 1000
*.host3.app[1].typename = "UdpSinkApp"
*.host3.app[1].io.localPort = 1001
*.host3.app[2].typename = "UdpBasicApp"
*.host3.app[2].destAddresses = "host4"
*.host3.app[2].source.packetNameFormat = "%M-%m-%c"
*.host3.app[2].source.displayStringTextFormat = "sent %p pk (%l)"
*.host3.app[2].messageLength = 15B
*.host3.app[2].sendInterval = 1ms
*.host3.app[2].startTime = 12ms
*.host3.app[2].stopTime = 15ms
*.host3.app[2].display-name = "type2_0"
*.host3.app[2].destPort = 1001
*.host3.app[3].typename = "UdpBasicApp"
*.host3.app[3].destAddresses = "host4"
*.host3.app[3].source.packetNameFormat = "%M-%m-%c"
*.host3.app[3].source.displayStringTextFormat = "sent %p pk (%l)"
*.host3.app[3].messageLength = 15B
*.host3.app[3].sendInterval = 1ms
*.host3.app[3].startTime = 20ms
*.host3.app[3].stopTime = 24ms
*.host3.app[3].display-name = "type2_0"
*.host3.app[3].destPort = 1001
*.host3.app[4].typename = "UdpBasicApp"
*.host3.app[4].destAddresses = "host4"
*.host3.app[4].source.packetNameFormat = "%M-%m-%c"
*.host3.app[4].source.displayStringTextFormat = "sent %p pk (%l)"
*.host3.app[4].messageLength = 15B
*.host3.app[4].sendInterval = 1ms
*.host3.app[4].startTime = 26ms
*.host3.app[4].stopTime = 39ms
*.host3.app[4].display-name = "type2_0"
*.host3.app[4].destPort = 1001
*.host3.app[5].typename = "UdpBasicApp"
*.host3.app[5].destAddresses = "host4"
*.host3.app[5].source.packetNameFormat = "%M-%m-%c"
*.host3.app[5].source.displayStringTextFormat = "sent %p pk (%l)"
*.host3.app[5].messageLength = 15B
*.host3.app[5].sendInterval = 1ms
*.host3.app[5].startTime = 42ms
*.host3.app[5].stopTime = 44ms
*.host3.app[5].display-name = "type2_0"
*.host3.app[5].destPort = 1001
*.host3.app[6].typename = "UdpBasicApp"
*.host3.app[6].destAddresses = "host4"
*.host3.app[6].source.packetNameFormat = "%M-%m-%c"
*.host3.app[6].source.displayStringTextFormat = "sent %p pk (%l)"
*.host3.app[6].messageLength = 15B
*.host3.app[6].sendInterval = 1ms
*.host3.app[6].startTime = 48ms
*.host3.app[6].stopTime = 51ms
*.host3.app[6].display-name = "type2_0"
*.host3.app[6].destPort = 1001
*.host3.app[7].typename = "UdpBasicApp"
*.host3.app[7].destAddresses = "host4"
*.host3.app[7].source.packetNameFormat = "%M-%m-%c"
*.host3.app[7].source.displayStringTextFormat = "sent %p pk (%l)"
*.host3.app[7].messageLength = 15B
*.host3.app[7].sendInterval = 1ms
*.host3.app[7].startTime = 64ms
*.host3.app[7].stopTime = 65ms
*.host3.app[7].display-name = "type2_0"
*.host3.app[7].destPort = 1001
*.host3.app[8].typename = "UdpBasicApp"
*.host3.app[8].destAddresses = "host4"
*.host3.app[8].source.packetNameFormat = "%M-%m-%c"
*.host3.app[8].source.displayStringTextFormat = "sent %p pk (%l)"
*.host3.app[8].messageLength = 15B
*.host3.app[8].sendInterval = 1ms
*.host3.app[8].startTime = 71ms
*.host3.app[8].stopTime = 86ms
*.host3.app[8].display-name = "type2_0"
*.host3.app[8].destPort = 1001
*.host3.app[9].typename = "UdpBasicApp"
*.host3.app[9].destAddresses = "host4"
*.host3.app[9].source.packetNameFormat = "%M-%m-%c"
*.host3.app[9].source.displayStringTextFormat = "sent %p pk (%l)"
*.host3.app[9].messageLength = 15B
*.host3.app[9].sendInterval = 1ms
*.host3.app[9].startTime = 91ms
*.host3.app[9].stopTime = 100ms
*.host3.app[9].display-name = "type2_0"
*.host3.app[9].destPort = 1001
*.host3.app[10].typename = "UdpSinkApp"
*.host3.app[10].io.localPort = 1002
*.host4.numApps = 10
*.host4.app[0].typename = "UdpSourceApp"
*.host4.app[0].io.destAddress = "host3"
*.host4.app[0].source.packetNameFormat = "%M-%m-%c"
*.host4.app[0].source.displayStringTextFormat = "sent %p pk (%l)"
*.host4.app[0].source.packetLength = 14B
*.host4.app[0].source.productionInterval = 1ms
*.host4.app[0].display-name = "type1_5"
*.host4.app[0].io.destPort = 1001
*.host4.app[1].typename = "UdpSourceApp"
*.host4.app[1].io.destAddress = "host7"
*.host4.app[1].source.packetNameFormat = "%M-%m-%c"
*.host4.app[1].source.displayStringTextFormat = "sent %p pk (%l)"
*.host4.app[1].source.packetLength = 19B
*.host4.app[1].source.productionInterval = 1ms
*.host4.app[1].display-name = "type1_7"
*.host4.app[1].io.destPort = 1000
*.host4.app[2].typename = "UdpSinkApp"
*.host4.app[2].io.localPort = 1000
*.host4.app[3].typename = "UdpSinkApp"
*.host4.app[3].io.localPort = 1001
*.host4.app[4].typename = "UdpBasicApp"
*.host4.app[4].destAddresses = "host2"
*.host4.app[4].source.packetNameFormat = "%M-%m-%c"
*.host4.app[4].source.displayStringTextFormat = "sent %p pk (%l)"
*.host4.app[4].messageLength = 12B
*.host4.app[4].sendInterval = 1ms
*.host4.app[4].startTime = 26ms
*.host4.app[4].stopTime = 35ms
*.host4.app[4].display-name = "type2_5"
*.host4.app[4].destPort = 1001
*.host4.app[5].typename = "UdpBasicApp"
*.host4.app[5].destAddresses = "host2"
*.host4.app[5].source.packetNameFormat = "%M-%m-%c"
*.host4.app[5].source.displayStringTextFormat = "sent %p pk (%l)"
*.host4.app[5].messageLength = 12B
*.host4.app[5].sendInterval = 1ms
*.host4.app[5].startTime = 42ms
*.host4.app[5].stopTime = 44ms
*.host4.app[5].display-name = "type2_5"
*.host4.app[5].destPort = 1001
*.host4.app[6].typename = "UdpBasicApp"
*.host4.app[6].destAddresses = "host2"
*.host4.app[6].source.packetNameFormat = "%M-%m-%c"
*.host4.app[6].source.displayStringTextFormat = "sent %p pk (%l)"
*.host4.app[6].messageLength = 12B
*.host4.app[6].sendInterval = 1ms
*.host4.app[6].startTime = 45ms
*.host4.app[6].stopTime = 49ms
*.host4.app[6].display-name = "type2_5"
*.host4.app[6].destPort = 1001
*.host4.app[7].typename = "UdpBasicApp"
*.host4.app[7].destAddresses = "host2"
*.host4.app[7].source.packetNameFormat = "%M-%m-%c"
*.host4.app[7].source.displayStringTextFormat = "sent %p pk (%l)"
*.host4.app[7].messageLength = 12B
*.host4.app[7].sendInterval = 1ms
*.host4.app[7].startTime = 59ms
*.host4.app[7].stopTime = 62ms
*.host4.app[7].display-name = "type2_5"
*.host4.app[7].destPort = 1001
*.host4.app[8].typename = "UdpBasicApp"
*.host4.app[8].destAddresses = "host2"
*.host4.app[8].source.packetNameFormat = "%M-%m-%c"
*.host4.app[8].source.displayStringTextFormat = "sent %p pk (%l)"
*.host4.app[8].messageLength = 12B
*.host4.app[8].sendInterval = 1ms
*.host4.app[8].startTime = 73ms
*.host4.app[8].stopTime = 75ms
*.host4.app[8].display-name = "type2_5"
*.host4.app[8].destPort = 1001
*.host4.app[9].typename = "UdpBasicApp"
*.host4.app[9].destAddresses = "host2"
*.host4.app[9].source.packetNameFormat = "%M-%m-%c"
*.host4.app[9].source.displayStringTextFormat = "sent %p pk (%l)"
*.host4.app[9].messageLength = 12B
*.host4.app[9].sendInterval = 1ms
*.host4.app[9].startTime = 87ms
*.host4.app[9].stopTime = 97ms
*.host4.app[9].display-name = "type2_5"
*.host4.app[9].destPort = 1001
*.host5.numApps = 3
*.host5.app[0].typename = "UdpSourceApp"
*.host5.app[0].io.destAddress = "host4"
*.host5.app[0].source.packetNameFormat = "%M-%m-%c"
*.host5.app[0].source.displayStringTextFormat = "sent %p pk (%l)"
*.host5.app[0].source.packetLength = 16B
*.host5.app[0].source.productionInterval = 1ms
*.host5.app[0].display-name = "type1_8"
*.host5.app[0].io.destPort = 1000
*.host5.app[1].typename = "UdpSinkApp"
*.host5.app[1].io.localPort = 1000
*.host5.app[2].typename = "UdpSinkApp"
*.host5.app[2].io.localPort = 1001
*.host6.numApps = 1
*.host6.app[0].typename = "UdpSourceApp"
*.host6.app[0].io.destAddress = "host2"
*.host6.app[0].source.packetNameFormat = "%M-%m-%c"
*.host6.app[0].source.displayStringTextFormat = "sent %p pk (%l)"
*.host6.app[0].source.packetLength = 16B
*.host6.app[0].source.productionInterval = 1ms
*.host6.app[0].display-name = "type1_2"
*.host6.app[0].io.destPort = 1000
*.host7.numApps = 3
*.host7.app[0].typename = "UdpSourceApp"
*.host7.app[0].io.destAddress = "host3"
*.host7.app[0].source.packetNameFormat = "%M-%m-%c"
*.host7.app[0].source.displayStringTextFormat = "sent %p pk (%l)"
*.host7.app[0].source.packetLength = 21B
*.host7.app[0].source.productionInterval = 1ms
*.host7.app[0].display-name = "type1_1"
*.host7.app[0].io.destPort = 1000
*.host7.app[1].typename = "UdpSinkApp"
*.host7.app[1].io.localPort = 1000
*.host7.app[2].typename = "UdpSinkApp"
*.host7.app[2].io.localPort = 1001
*.host8.numApps = 21
*.host8.app[0].typename = "UdpSourceApp"
*.host8.app[0].io.destAddress = "host1"
*.host8.app[0].source.packetNameFormat = "%M-%m-%c"
*.host8.app[0].source.displayStringTextFormat = "sent %p pk (%l)"
*.host8.app[0].source.packetLength = 13B
*.host8.app[0].source.productionInterval = 1ms
*.host8.app[0].display-name = "type1_4"
*.host8.app[0].io.destPort = 1001
*.host8.app[1].typename = "UdpBasicApp"
*.host8.app[1].destAddresses = "host7"
*.host8.app[1].source.packetNameFormat = "%M-%m-%c"
*.host8.app[1].source.displayStringTextFormat = "sent %p pk (%l)"
*.host8.app[1].messageLength = 17B
*.host8.app[1].sendInterval = 1ms
*.host8.app[1].startTime = 0ms
*.host8.app[1].stopTime = 8ms
*.host8.app[1].display-name = "type2_1"
*.host8.app[1].destPort = 1001
*.host8.app[2].typename = "UdpBasicApp"
*.host8.app[2].destAddresses = "host7"
*.host8.app[2].source.packetNameFormat = "%M-%m-%c"
*.host8.app[2].source.displayStringTextFormat = "sent %p pk (%l)"
*.host8.app[2].messageLength = 17B
*.host8.app[2].sendInterval = 1ms
*.host8.app[2].startTime = 12ms
*.host8.app[2].stopTime = 19ms
*.host8.app[2].display-name = "type2_1"
*.host8.app[2].destPort = 1001
*.host8.app[3].typename = "UdpBasicApp"
*.host8.app[3].destAddresses = "host7"
*.host8.app[3].source.packetNameFormat = "%M-%m-%c"
*.host8.app[3].source.displayStringTextFormat = "sent %p pk (%l)"
*.host8.app[3].messageLength = 17B
*.host8.app[3].sendInterval = 1ms
*.host8.app[3].startTime = 32ms
*.host8.app[3].stopTime = 41ms
*.host8.app[3].display-name = "type2_1"
*.host8.app[3].destPort = 1001
*.host8.app[4].typename = "UdpBasicApp"
*.host8.app[4].destAddresses = "host7"
*.host8.app[4].source.packetNameFormat = "%M-%m-%c"
*.host8.app[4].source.displayStringTextFormat = "sent %p pk (%l)"
*.host8.app[4].messageLength = 17B
*.host8.app[4].sendInterval = 1ms
*.host8.app[4].startTime = 42ms
*.host8.app[4].stopTime = 43ms
*.host8.app[4].display-name = "type2_1"
*.host8.app[4].destPort = 1001
*.host8.app[5].typename = "UdpBasicApp"
*.host8.app[5].destAddresses = "host7"
*.host8.app[5].source.packetNameFormat = "%M-%m-%c"
*.host8.app[5].source.displayStringTextFormat = "sent %p pk (%l)"
*.host8.app[5].messageLength = 17B
*.host8.app[5].sendInterval = 1ms
*.host8.app[5].startTime = 49ms
*.host8.app[5].stopTime = 52ms
*.host8.app[5].display-name = "type2_1"
*.host8.app[5].destPort = 1001
*.host8.app[6].typename = "UdpBasicApp"
*.host8.app[6].destAddresses = "host7"
*.host8.app[6].source.packetNameFormat = "%M-%m-%c"
*.host8.app[6].source.displayStringTextFormat = "sent %p pk (%l)"
*.host8.app[6].messageLength = 17B
*.host8.app[6].sendInterval = 1ms
*.host8.app[6].startTime = 54ms
*.host8.app[6].stopTime = 70ms
*.host8.app[6].display-name = "type2_1"
*.host8.app[6].destPort = 1001
*.host8.app[7].typename = "UdpBasicApp"
*.host8.app[7].destAddresses = "host7"
*.host8.app[7].source.packetNameFormat = "%M-%m-%c"
*.host8.app[7].source.displayStringTextFormat = "sent %p pk (%l)"
*.host8.app[7].messageLength = 17B
*.host8.app[7].sendInterval = 1ms
*.host8.app[7].startTime = 77ms
*.host8.app[7].stopTime = 81ms
*.host8.app[7].display-name = "type2_1"
*.host8.app[7].destPort = 1001
*.host8.app[8].typename = "UdpBasicApp"
*.host8.app[8].destAddresses = "host7"
*.host8.app[8].source.packetNameFormat = "%M-%m-%c"
*.host8.app[8].source.displayStringTextFormat = "sent %p pk (%l)"
*.host8.app[8].messageLength = 17B
*.host8.app[8].sendInterval = 1ms
*.host8.app[8].startTime = 88ms
*.host8.app[8].stopTime = 90ms
*.host8.app[8].display-name = "type2_1"
*.host8.app[8].destPort = 1001
*.host8.app[9].typename = "UdpSinkApp"
*.host8.app[9].io.localPort = 1000
*.host8.app[10].typename = "UdpBasicApp"
*.host8.app[10].destAddresses = "host5"
*.host8.app[10].source.packetNameFormat = "%M-%m-%c"
*.host8.app[10].source.displayStringTextFormat = "sent %p pk (%l)"
*.host8.app[10].messageLength = 12B
*.host8.app[10].sendInterval = 1ms
*.host8.app[10].startTime = 4ms
*.host8.app[10].stopTime = 15ms
*.host8.app[10].display-name = "type2_6"
*.host8.app[10].destPort = 1001
*.host8.app[11].typename = "UdpBasicApp"
*.host8.app[11].destAddresses = "host5"
*.host8.app[11].source.packetNameFormat = "%M-%m-%c"
*.host8.app[11].source.displayStringTextFormat = "sent %p pk (%l)"
*.host8.app[11].messageLength = 12B
*.host8.app[11].sendInterval = 1ms
*.host8.app[11].startTime = 19ms
*.host8.app[11].stopTime = 22ms
*.host8.app[11].display-name = "type2_6"
*.host8.app[11].destPort = 1001
*.host8.app[12].typename = "UdpBasicApp"
*.host8.app[12].destAddresses = "host5"
*.host8.app[12].source.packetNameFormat = "%M-%m-%c"
*.host8.app[12].source.displayStringTextFormat = "sent %p pk (%l)"
*.host8.app[12].messageLength = 12B
*.host8.app[12].sendInterval = 1ms
*.host8.app[12].startTime = 25ms
*.host8.app[12].stopTime = 59ms
*.host8.app[12].display-name = "type2_6"
*.host8.app[12].destPort = 1001
*.host8.app[13].typename = "UdpBasicApp"
*.host8.app[13].destAddresses = "host5"
*.host8.app[13].source.packetNameFormat = "%M-%m-%c"
*.host8.app[13].source.displayStringTextFormat = "sent %p pk (%l)"
*.host8.app[13].messageLength = 12B
*.host8.app[13].sendInterval = 1ms
*.host8.app[13].startTime = 89ms
*.host8.app[13].stopTime = 91ms
*.host8.app[13].display-name = "type2_6"
*.host8.app[13].destPort = 1001
*.host8.app[14].typename = "UdpBasicApp"
*.host8.app[14].destAddresses = "host5"
*.host8.app[14].source.packetNameFormat = "%M-%m-%c"
*.host8.app[14].source.displayStringTextFormat = "sent %p pk (%l)"
*.host8.app[14].messageLength = 12B
*.host8.app[14].sendInterval = 1ms
*.host8.app[14].startTime = 92ms
*.host8.app[14].stopTime = 98ms
*.host8.app[14].display-name = "type2_6"
*.host8.app[14].destPort = 1001
*.host8.app[15].typename = "UdpSinkApp"
*.host8.app[15].io.localPort = 1001
*.host8.app[16].typename = "UdpSinkApp"
*.host8.app[16].io.localPort = 1002
*.host8.app[17].typename = "UdpBasicApp"
*.host8.app[17].destAddresses = "host9"
*.host8.app[17].source.packetNameFormat = "%M-%m-%c"
*.host8.app[17].source.displayStringTextFormat = "sent %p pk (%l)"
*.host8.app[17].messageLength = 22B
*.host8.app[17].sendInterval = 1ms
*.host8.app[17].startTime = 18ms
*.host8.app[17].stopTime = 20ms
*.host8.app[17].display-name = "type2_9"
*.host8.app[17].destPort = 1001
*.host8.app[18].typename = "UdpBasicApp"
*.host8.app[18].destAddresses = "host9"
*.host8.app[18].source.packetNameFormat = "%M-%m-%c"
*.host8.app[18].source.displayStringTextFormat = "sent %p pk (%l)"
*.host8.app[18].messageLength = 22B
*.host8.app[18].sendInterval = 1ms
*.host8.app[18].startTime = 28ms
*.host8.app[18].stopTime = 31ms
*.host8.app[18].display-name = "type2_9"
*.host8.app[18].destPort = 1001
*.host8.app[19].typename = "UdpBasicApp"
*.host8.app[19].destAddresses = "host9"
*.host8.app[19].source.packetNameFormat = "%M-%m-%c"
*.host8.app[19].source.displayStringTextFormat = "sent %p pk (%l)"
*.host8.app[19].messageLength = 22B
*.host8.app[19].sendInterval = 1ms