
[General]
network = TSN_multipath
sim-time-limit = 10ms

# disable automatic MAC forwarding table configuration
*.macForwardingTableConfigurator.typename = ""

# enable frame replication and elimination
*.*.hasStreamRedundancy = true

# enable stream policing in layer 2
*.*.bridging.streamRelay.typename = "StreamRelayLayer"
*.*.bridging.streamCoder.typename = "StreamCoderLayer"

# enable automatic stream redundancy configurator
*.streamRedundancyConfigurator.typename = "StreamRedundancyConfigurator"

*.host0.eth[0].bitrate = 100Mbps
*.switch0.eth[0].bitrate = 100Mbps
*.switch0.eth[1].bitrate = 190Mbps
*.switch0.eth[2].bitrate = 220Mbps
*.switch0.eth[3].bitrate = 240Mbps
*.switch0.eth[4].bitrate = 200Mbps
*.switch0.eth[5].bitrate = 190Mbps
*.switch0.eth[6].bitrate = 230Mbps
*.switch0.eth[7].bitrate = 210Mbps
*.switch0.eth[8].bitrate = 150Mbps
*.switch0.eth[9].bitrate = 230Mbps
*.switch0.eth[10].bitrate = 240Mbps
*.switch0.eth[11].bitrate = 210Mbps
*.switch0.eth[12].bitrate = 210Mbps
*.switch0.eth[13].bitrate = 120Mbps
*.switch0.eth[14].bitrate = 200Mbps
*.switch0.eth[15].bitrate = 220Mbps
*.switch0.eth[16].bitrate = 240Mbps
*.switch0.eth[17].bitrate = 160Mbps
*.switch0.eth[18].bitrate = 120Mbps
*.switch0.eth[19].bitrate = 210Mbps
*.switch0.eth[20].bitrate = 130Mbps
*.switch0.eth[21].bitrate = 130Mbps
*.switch0.eth[22].bitrate = 220Mbps
*.switch0.eth[23].bitrate = 200Mbps
*.switch0.eth[24].bitrate = 190Mbps
*.switch0.eth[25].bitrate = 170Mbps
*.switch0.eth[26].bitrate = 170Mbps
*.switch0.eth[27].bitrate = 180Mbps
*.switch0.eth[28].bitrate = 210Mbps
*.switch0.eth[29].bitrate = 130Mbps
*.switch0.eth[30].bitrate = 180Mbps
*.switch0.eth[31].bitrate = 190Mbps
*.switch0.eth[32].bitrate = 190Mbps
*.switch0.eth[33].bitrate = 130Mbps
*.switch0.eth[34].bitrate = 220Mbps
*.host1.eth[0].bitrate = 100Mbps
*.switch1.eth[0].bitrate = 100Mbps
*.switch1.eth[1].bitrate = 190Mbps
*.switch1.eth[2].bitrate = 220Mbps
*.switch1.eth[3].bitrate = 230Mbps
*.switch1.eth[4].bitrate = 190Mbps
*.switch1.eth[5].bitrate = 170Mbps
*.switch1.eth[6].bitrate = 240Mbps
*.switch1.eth[7].bitrate = 180Mbps
*.switch1.eth[8].bitrate = 190Mbps
*.switch1.eth[9].bitrate = 230Mbps
*.switch1.eth[10].bitrate = 170Mbps
*.switch1.eth[11].bitrate = 160Mbps
*.switch1.eth[12].bitrate = 190Mbps
*.switch1.eth[13].bitrate = 180Mbps
*.switch1.eth[14].bitrate = 200Mbps
*.switch1.eth[15].bitrate = 190Mbps
*.switch1.eth[16].bitrate = 240Mbps
*.switch1.eth[17].bitrate = 170Mbps
*.switch1.eth[18].bitrate = 170Mbps
*.switch1.eth[19].bitrate = 160Mbps
*.switch1.eth[20].bitrate = 210Mbps
*.switch1.eth[21].bitrate = 120Mbps
*.switch1.eth[22].bitrate = 220Mbps
*.switch1.eth[23].bitrate = 230Mbps
*.switch1.eth[24].bitrate = 120Mbps
*.switch1.eth[25].bitrate = 230Mbps
*.switch1.eth[26].bitrate = 120Mbps
*.switch1.eth[27].bitrate = 220Mbps
*.switch1.eth[28].bitrate = 240Mbps
*.switch1.eth[29].bitrate = 140Mbps
*.switch1.eth[30].bitrate = 230Mbps
*.switch1.eth[31].bitrate = 230Mbps
*.switch1.eth[32].bitrate = 210Mbps
*.switch1.eth[33].bitrate = 120Mbps
*.switch1.eth[34].bitrate = 130Mbps
*.switch1.eth[35].bitrate = 220Mbps
*.switch1.eth[36].bitrate = 170Mbps
*.host2.eth[0].bitrate = 100Mbps
*.switch2.eth[0].bitrate = 100Mbps
*.switch2.eth[1].bitrate = 220Mbps
*.switch2.eth[2].bitrate = 230Mbps
*.switch2.eth[3].bitrate = 120Mbps
*.switch2.eth[4].bitrate = 210Mbps
*.switch2.eth[5].bitrate = 160Mbps
*.switch2.eth[6].bitrate = 130Mbps
*.switch2.eth[7].bitrate = 170Mbps
*.switch2.eth[8].bitrate = 200Mbps
*.switch2.eth[9].bitrate = 120Mbps
*.switch2.eth[10].bitrate = 150Mbps
*.switch2.eth[11].bitrate = 220Mbps
*.switch2.eth[12].bitrate = 120Mbps
*.switch2.eth[13].bitrate = 160Mbps
*.switch2.eth[14].bitrate = 220Mbps
*.switch2.eth[15].bitrate = 120Mbps
*.switch2.eth[16].bitrate = 170Mbps
*.switch2.eth[17].bitrate = 220Mbps
*.switch2.eth[18].bitrate = 140Mbps
*.switch2.eth[19].bitrate = 170Mbps
*.switch2.eth[20].bitrate = 200Mbps
*.switch2.eth[21].bitrate = 200Mbps
*.switch2.eth[22].bitrate = 140Mbps
*.switch2.eth[23].bitrate = 240Mbps
*.switch2.eth[24].bitrate = 230Mbps
*.switch2.eth[25].bitrate = 160Mbps
*.switch2.eth[26].bitrate = 240Mbps
*.switch2.eth[27].bitrate = 140Mbps
*.switch2.eth[28].bitrate = 140Mbps
*.switch2.eth[29].bitrate = 190Mbps
*.switch2.eth[30].bitrate = 170Mbps
*.switch2.eth[31].bitrate = 130Mbps
*.switch2.eth[32].bitrate = 150Mbps
*.switch2.eth[33].bitrate = 160Mbps
*.switch2.eth[34].bitrate = 120Mbps
*.switch2.eth[35].bitrate = 200Mbps
*.switch2.eth[36].bitrate = 150Mbps
*.switch2.eth[37].bitrate = 150Mbps
*.host3.eth[0].bitrate = 100Mbps
*.switch3.eth[0].bitrate = 100Mbps
*.switch3.eth[1].bitrate = 240Mbps
*.switch3.eth[2].bitrate = 190Mbps
*.switch3.eth[3].bitrate = 210Mbps
*.switch3.eth[4].bitrate = 200Mbps
*.switch3.eth[5].bitrate = 230Mbps
*.switch3.eth[6].bitrate = 170Mbps
*.switch3.eth[7].bitrate = 190Mbps
*.switch3.eth[8].bitrate = 230Mbps
*.switch3.eth[9].bitrate = 230Mbps
*.switch3.eth[10].bitrate = 200Mbps
*.switch3.eth[11].bitrate = 130Mbps
*.switch3.eth[12].bitrate = 130Mbps
*.switch3.eth[13].bitrate = 220Mbps
*.switch3.eth[14].bitrate = 210Mbps
*.switch3.eth[15].bitrate = 230Mbps
*.switch3.eth[16].bitrate = 220Mbps
*.switch3.eth[17].bitrate = 190Mbps
*.switch3.eth[18].bitrate = 240Mbps
*.switch3.eth[19].bitrate = 150Mbps
*.switch3.eth[20].bitrate = 180Mbps
*.switch3.eth[21].bitrate = 160Mbps
*.switch3.eth[22].bitrate = 190Mbps
*.switch3.eth[23].bitrate = 240Mbps
*.switch3.eth[24].bitrate = 200Mbps
*.switch3.eth[25].bitrate = 120Mbps
*.switch3.eth[26].bitrate = 190Mbps
*.switch3.eth[27].bitrate = 160Mbps
*.switch3.eth[28].bitrate = 140Mbps
*.switch3.eth[29].bitrate = 210Mbps
*.switch3.eth[30].bitrate = 160Mbps
*.switch3.eth[31].bitrate = 230Mbps
*.switch3.eth[32].bitrate = 160Mbps
*.host4.eth[0].bitrate = 100Mbps
*.switch4.eth[0].bitrate = 100Mbps
*.switch4.eth[1].bitrate = 200Mbps
*.switch4.eth[2].bitrate = 170Mbps
*.switch4.eth[3].bitrate = 160Mbps
*.switch4.eth[4].bitrate = 170Mbps
*.switch4.eth[5].bitrate = 190Mbps
*.switch4.eth[6].bitrate = 230Mbps
*.switch4.eth[7].bitrate = 170Mbps
*.switch4.eth[8].bitrate = 180Mbps
*.switch4.eth[9].bitrate = 120Mbps
*.switch4.eth[10].bitrate = 180Mbps
*.switch4.eth[11].bitrate = 130Mbps
*.switch4.eth[12].bitrate = 170Mbps
*.switch4.eth[13].bitrate = 160Mbps
*.switch4.eth[14].bitrate = 200Mbps
*.switch4.eth[15].bitrate = 160Mbps
*.switch4.eth[16].bitrate = 160Mbps
*.switch4.eth[17].bitrate = 150Mbps
*.switch4.eth[18].bitrate = 190Mbps
*.switch4.eth[19].bitrate = 130Mbps
*.switch4.eth[20].bitrate = 120Mbps
*.switch4.eth[21].bitrate = 130Mbps
*.switch4.eth[22].bitrate = 210Mbps
*.switch4.eth[23].bitrate = 120Mbps
*.switch4.eth[24].bitrate = 190Mbps
*.switch4.eth[25].bitrate = 150Mbps
*.switch4.eth[26].bitrate = 160Mbps
*.switch4.eth[27].bitrate = 220Mbps
*.switch4.eth[28].bitrate = 240Mbps
*.switch4.eth[29].bitrate = 180Mbps
*.switch4.eth[30].bitrate = 140Mbps
*.switch4.eth[31].bitrate = 180Mbps
*.switch4.eth[32].bitrate = 170Mbps
*.host5.eth[0].bitrate = 100Mbps
*.switch5.eth[0].bitrate = 100Mbps
*.switch5.eth[1].bitrate = 190Mbps
*.switch5.eth[2].bitrate = 190Mbps
*.switch5.eth[3].bitrate = 170Mbps
*.switch5.eth[4].bitrate = 170Mbps
*.switch5.eth[5].bitrate = 120Mbps
*.switch5.eth[6].bitrate = 180Mbps
*.switch5.eth[7].bitrate = 150Mbps
*.switch5.eth[8].bitrate = 140Mbps
*.switch5.eth[9].bitrate = 160Mbps
*.switch5.eth[10].bitrate = 230Mbps
*.switch5.eth[11].bitrate = 140Mbps
*.switch5.eth[12].bitrate = 150Mbps
*.switch5.eth[13].bitrate = 150Mbps
*.switch5.eth[14].bitrate = 120Mbps
*.switch5.eth[15].bitrate = 120Mbps
*.switch5.eth[16].bitrate = 120Mbps
*.switch5.eth[17].bitrate = 210Mbps
*.switch5.eth[18].bitrate = 240Mbps
*.switch5.eth[19].bitrate = 140Mbps
*.switch5.eth[20].bitrate = 140Mbps
*.switch5.eth[21].bitrate = 160Mbps
*.switch5.eth[22].bitrate = 240Mbps
*.switch5.eth[23].bitrate = 220Mbps
*.switch5.eth[24].bitrate = 210Mbps
*.switch5.eth[25].bitrate = 150Mbps
*.switch5.eth[26].bitrate = 210Mbps
*.switch5.eth[27].bitrate = 240Mbps
*.switch5.eth[28].bitrate = 170Mbps
*.switch5.eth[29].bitrate = 210Mbps
*.switch5.eth[30].bitrate = 170Mbps
*.switch5.eth[31].bitrate = 150Mbps
*.switch5.eth[32].bitrate = 230Mbps
*.switch5.eth[33].bitrate = 180Mbps
*.switch5.eth[34].bitrate = 230Mbps
*.switch5.eth[35].bitrate = 150Mbps
*.switch5.eth[36].bitrate = 190Mbps
*.switch5.eth[37].bitrate = 160Mbps
*.host6.eth[0].bitrate = 100Mbps
*.switch6.eth[0].bitrate = 100Mbps
*.switch6.eth[1].bitrate = 230Mbps
*.switch6.eth[2].bitrate = 240Mbps
*.switch6.eth[3].bitrate = 130Mbps
*.switch6.eth[4].bitrate = 230Mbps
*.switch6.eth[5].bitrate = 140Mbps
*.switch6.eth[6].bitrate = 170Mbps
*.switch6.eth[7].bitrate = 220Mbps
*.switch6.eth[8].bitrate = 160Mbps
*.switch6.eth[9].bitrate = 160Mbps
*.switch6.eth[10].bitrate = 190Mbps
*.switch6.eth[11].bitrate = 150Mbps
*.switch6.eth[12].bitrate = 200Mbps
*.switch6.eth[13].bitrate = 130Mbps
*.switch6.eth[14].bitrate = 240Mbps
*.switch6.eth[15].bitrate = 180Mbps
*.switch6.eth[16].bitrate = 220Mbps
*.switch6.eth[17].bitrate = 220Mbps
*.switch6.eth[18].bitrate = 160Mbps
*.switch6.eth[19].bitrate = 190Mbps
*.switch6.eth[20].bitrate = 230Mbps
*.switch6.eth[21].bitrate = 240Mbps
*.switch6.eth[22].bitrate = 160Mbps
*.switch6.eth[23].bitrate = 200Mbps
*.switch6.eth[24].bitrate = 160Mbps
*.switch6.eth[25].bitrate = 190Mbps
*.switch6.eth[26].bitrate = 130Mbps
*.switch6.eth[27].bitrate = 150Mbps
*.switch6.eth[28].bitrate = 230Mbps
*.switch6.eth[29].bitrate = 170Mbps
*.switch6.eth[30].bitrate = 190Mbps
*.switch6.eth[31].bitrate = 210Mbps
*.switch6.eth[32].bitrate = 190Mbps
*.switch6.eth[33].bitrate = 150Mbps
*.switch6.eth[34].bitrate = 240Mbps
*.switch6.eth[35].bitrate = 230Mbps
*.switch6.eth[36].bitrate = 230Mbps
*.switch6.eth[37].bitrate = 130Mbps
*.switch6.eth[38].bitrate = 200Mbps
*.switch6.eth[39].bitrate = 150Mbps
*.switch6.eth[40].bitrate = 120Mbps
*.host7.eth[0].bitrate = 100Mbps
*.switch7.eth[0].bitrate = 100Mbps
*.switch7.eth[1].bitrate = 210Mbps
*.switch7.eth[2].bitrate = 180Mbps
*.switch7.eth[3].bitrate = 170Mbps
*.switch7.eth[4].bitrate = 230Mbps
*.switch7.eth[5].bitrate = 180Mbps
*.switch7.eth[6].bitrate = 160Mbps
*.switch7.eth[7].bitrate = 180Mbps
*.switch7.eth[8].bitrate = 240Mbps
*.switch7.eth[9].bitrate = 190Mbps
*.switch7.eth[10].bitrate = 210Mbps
*.switch7.eth[11].bitrate = 130Mbps
*.switch7.eth[12].bitrate = 140Mbps
*.switch7.eth[13].bitrate = 220Mbps
*.switch7.eth[14].bitrate = 180Mbps
*.switch7.eth[15].bitrate = 150Mbps
*.switch7.eth[16].bitrate = 200Mbps
*.switch7.eth[17].bitrate = 170Mbps
*.switch7.eth[18].bitrate = 230Mbps
*.switch7.eth[19].bitrate = 120Mbps
*.switch7.eth[20].bitrate = 150Mbps
*.switch7.eth[21].bitrate = 160Mbps
*.switch7.eth[22].bitrate = 230Mbps
*.switch7.eth[23].bitrate = 240Mbps
*.switch7.eth[24].bitrate = 160Mbps
*.switch7.eth[25].bitrate = 190Mbps
*.switch7.eth[26].bitrate = 120Mbps
*.switch7.eth[27].bitrate = 230Mbps
*.switch7.eth[28].bitrate = 130Mbps
*.switch7.eth[29].bitrate = 230Mbps
*.switch7.eth[30].bitrate = 190Mbps
*.switch7.eth[31].bitrate = 190Mbps
*.switch7.eth[32].bitrate = 230Mbps
*.switch7.eth[33].bitrate = 190Mbps
*.host8.eth[0].bitrate = 100Mbps
*.switch8.eth[0].bitrate = 100Mbps
*.switch8.eth[1].bitrate = 150Mbps
*.switch8.eth[2].bitrate = 190Mbps
*.switch8.eth[3].bitrate = 200Mbps
*.switch8.eth[4].bitrate = 200Mbps
*.switch8.eth[5].bitrate = 120Mbps
*.switch8.eth[6].bitrate = 230Mbps
*.switch8.eth[7].bitrate = 200Mbps
*.switch8.eth[8].bitrate = 140Mbps
*.switch8.eth[9].bitrate = 140Mbps
*.switch8.eth[10].bitrate = 240Mbps
*.switch8.eth[11].bitrate = 130Mbps
*.switch8.eth[12].bitrate = 150Mbps
*.switch8.eth[13].bitrate = 230Mbps
*.switch8.eth[14].bitrate = 150Mbps
*.switch8.eth[15].bitrate = 230Mbps
*.switch8.eth[16].bitrate = 220Mbps
*.switch8.eth[17].bitrate = 210Mbps
*.switch8.eth[18].bitrate = 230Mbps
*.switch8.eth[19].bitrate = 190Mbps
*.switch8.eth[20].bitrate = 180Mbps
*.switch8.eth[21].bitrate = 240Mbps
*.switch8.eth[22].bitrate = 160Mbps
*.switch8.eth[23].bitrate = 130Mbps
*.switch8.eth[24].bitrate = 200Mbps
*.switch8.eth[25].bitrate = 120Mbps
*.switch8.eth[26].bitrate = 150Mbps
*.switch8.eth[27].bitrate = 160Mbps
*.switch8.eth[28].bitrate = 220Mbps
*.switch8.eth[29].bitrate = 130Mbps
*.switch8.eth[30].bitrate = 140Mbps
*.switch8.eth[31].bitrate = 230Mbps
*.switch8.eth[32].bitrate = 190Mbps
*.host9.eth[0].bitrate = 100Mbps
*.switch9.eth[0].bitrate = 100Mbps
*.switch9.eth[1].bitrate = 230Mbps
*.switch9.eth[2].bitrate = 230Mbps
*.switch9.eth[3].bitrate = 120Mbps
*.switch9.eth[4].bitrate = 140Mbps
*.switch9.eth[5].bitrate = 130Mbps
*.switch9.eth[6].bitrate = 140Mbps
*.switch9.eth[7].bitrate = 240Mbps
*.switch9.eth[8].bitrate = 120Mbps
*.switch9.eth[9].bitrate = 230Mbps
*.switch9.eth[10].bitrate = 240Mbps
*.switch9.eth[11].bitrate = 160Mbps
*.switch9.eth[12].bitrate = 190Mbps
*.switch9.eth[13].bitrate = 120Mbps
*.switch9.eth[14].bitrate = 180Mbps
*.switch9.eth[15].bitrate = 230Mbps
*.switch9.eth[16].bitrate = 220Mbps
*.switch9.eth[17].bitrate = 140Mbps
*.switch9.eth[18].bitrate = 150Mbps
*.switch9.eth[19].bitrate = 140Mbps
*.switch9.eth[20].bitrate = 140Mbps
*.switch9.eth[21].bitrate = 240Mbps
*.switch9.eth[22].bitrate = 190Mbps
*.switch9.eth[23].bitrate = 120Mbps
*.switch9.eth[24].bitrate = 190Mbps
*.switch9.eth[25].bitrate = 160Mbps
*.switch9.eth[26].bitrate = 120Mbps
*.switch9.eth[27].bitrate = 210Mbps
*.switch9.eth[28].bitrate = 200Mbps
*.switch9.eth[29].bitrate = 160Mbps
*.switch9.eth[30].bitrate = 200Mbps
*.host10.eth[0].bitrate = 100Mbps
*.switch10.eth[0].bitrate = 100Mbps
*.switch10.eth[1].bitrate = 240Mbps
*.switch10.eth[2].bitrate = 170Mbps
*.switch10.eth[3].bitrate = 150Mbps
*.switch10.eth[4].bitrate = 130Mbps
*.switch10.eth[5].bitrate = 150Mbps
*.switch10.eth[6].bitrate = 150Mbps
*.switch10.eth[7].bitrate = 210Mbps
*.switch10.eth[8].bitrate = 230Mbps
*.switch10.eth[9].bitrate = 140Mbps
*.switch10.eth[10].bitrate = 200Mbps
*.switch10.eth[11].bitrate = 130Mbps
*.switch10.eth[12].bitrate = 240Mbps
*.switch10.eth[13].bitrate = 170Mbps
*.switch10.eth[14].bitrate = 160Mbps
*.switch10.eth[15].bitrate = 140Mbps
*.switch10.eth[16].bitrate = 190Mbps
*.switch10.eth[17].bitrate = 200Mbps
*.switch10.eth[18].bitrate = 170Mbps
*.switch10.eth[19].bitrate = 170Mbps
*.switch10.eth[20].bitrate = 120Mbps
*.switch10.eth[21].bitrate = 120Mbps
*.switch10.eth[22].bitrate = 210Mbps
*.switch10.eth[23].bitrate = 170Mbps
*.switch10.eth[24].bitrate = 130Mbps
*.switch10.eth[25].bitrate = 150Mbps
*.switch10.eth[26].bitrate = 230Mbps
*.switch10.eth[27].bitrate = 160Mbps
*.switch10.eth[28].bitrate = 170Mbps
*.switch10.eth[29].bitrate = 240Mbps
*.switch10.eth[30].bitrate = 220Mbps
*.switch10.eth[31].bitrate = 230Mbps
*.switch10.eth[32].bitrate = 160Mbps
*.switch10.eth[33].bitrate = 210Mbps
*.switch10.eth[34].bitrate = 120Mbps
*.switch10.eth[35].bitrate = 120Mbps
*.switch10.eth[36].bitrate = 160Mbps
*.switch10.eth[37].bitrate = 160Mbps
*.switch10.eth[38].bitrate = 140Mbps
*.switch10.eth[39].bitrate = 240Mbps
*.switch10.eth[40].bitrate = 160Mbps
*.host11.eth[0].bitrate = 100Mbps
*.switch11.eth[0].bitrate = 100Mbps
*.switch11.eth[1].bitrate = 210Mbps
*.switch11.eth[2].bitrate = 160Mbps
*.switch11.eth[3].bitrate = 220Mbps
*.switch11.eth[4].bitrate = 130Mbps
*.switch11.eth[5].bitrate = 180Mbps
*.switch11.eth[6].bitrate = 240Mbps
*.switch11.eth[7].bitrate = 220Mbps
*.switch11.eth[8].bitrate = 190Mbps
*.switch11.eth[9].bitrate = 190Mbps
*.switch11.eth[10].bitrate = 130Mbps
*.switch11.eth[11].bitrate = 120Mbps
*.switch11.eth[12].bitrate = 210Mbps
*.switch11.eth[13].bitrate = 170Mbps
*.switch11.eth[14].bitrate = 190Mbps
*.switch11.eth[15].bitrate = 130Mbps
*.switch11.eth[16].bitrate = 240Mbps
*.switch11.eth[17].bitrate = 140Mbps
*.switch11.eth[18].bitrate = 170Mbps
*.switch11.eth[19].bitrate = 160Mbps
*.switch11.eth[20].bitrate = 220Mbps
*.switch11.eth[21].bitrate = 130Mbps
*.switch11.eth[22].bitrate = 140Mbps
*.switch11.eth[23].bitrate = 130Mbps
*.switch11.eth[24].bitrate = 130Mbps
*.switch11.eth[25].bitrate = 200Mbps
*.switch11.eth[26].bitrate = 140Mbps
*.switch11.eth[27].bitrate = 200Mbps
*.switch11.eth[28].bitrate = 220Mbps
*.switch11.eth[29].bitrate = 150Mbps
*.switch11.eth[30].bitrate = 120Mbps
*.switch11.eth[31].bitrate = 180Mbps
*.switch11.eth[32].bitrate = 240Mbps
*.switch11.eth[33].bitrate = 190Mbps
*.switch11.eth[34].bitrate = 180Mbps
*.switch11.eth[35].bitrate = 170Mbps
*.switch11.eth[36].bitrate = 230Mbps
*.host12.eth[0].bitrate = 100Mbps
*.switch12.eth[0].bitrate = 100Mbps
*.switch12.eth[1].bitrate = 190Mbps
*.switch12.eth[2].bitrate = 120Mbps
*.switch12.eth[3].bitrate = 220Mbps
*.switch12.eth[4].bitrate = 130Mbps
*.switch12.eth[5].bitrate = 150Mbps
*.switch12.eth[6].bitrate = 180Mbps
*.switch12.eth[7].bitrate = 180Mbps
*.switch12.eth[8].bitrate = 200Mbps
*.switch12.eth[9].bitrate = 190Mbps
*.switch12.eth[10].bitrate = 190Mbps
*.switch12.eth[11].bitrate = 120Mbps
*.switch12.eth[12].bitrate = 210Mbps
*.switch12.eth[13].bitrate = 210Mbps
*.switch12.eth[14].bitrate = 190Mbps
*.switch12.eth[15].bitrate = 220Mbps
*.switch12.eth[16].bitrate = 200Mbps
*.switch12.eth[17].bitrate = 140Mbps
*.switch12.eth[18].bitrate = 120Mbps
*.switch12.eth[19].bitrate = 180Mbps
*.switch12.eth[20].bitrate = 150Mbps
*.switch12.eth[21].bitrate = 230Mbps
*.switch12.eth[22].bitrate = 190Mbps
*.switch12.eth[23].bitrate = 130Mbps
*.switch12.eth[24].bitrate = 190Mbps
*.switch12.eth[25].bitrate = 150Mbps
*.switch12.eth[26].bitrate = 170Mbps
*.switch12.eth[27].bitrate = 150Mbps
*.switch12.eth[28].bitrate = 180Mbps
*.switch12.eth[29].bitrate = 180Mbps
*.switch12.eth[30].bitrate = 130Mbps
*.switch12.eth[31].bitrate = 140Mbps
*.switch12.eth[32].bitrate = 120Mbps
*.host13.eth[0].bitrate = 100Mbps
*.switch13.eth[0].bitrate = 100Mbps
*.switch13.eth[1].bitrate = 210Mbps
*.switch13.eth[2].bitrate = 180Mbps
*.switch13.eth[3].bitrate = 170Mbps
*.switch13.eth[4].bitrate = 120Mbps
*.switch13.eth[5].bitrate = 220Mbps
*.switch13.eth[6].bitrate = 150Mbps
*.switch13.eth[7].bitrate = 230Mbps
*.switch13.eth[8].bitrate = 170Mbps
*.switch13.eth[9].bitrate = 140Mbps
*.switch13.eth[10].bitrate = 140Mbps
*.switch13.eth[11].bitrate = 230Mbps
*.switch13.eth[12].bitrate = 150Mbps
*.switch13.eth[13].bitrate = 170Mbps
*.switch13.eth[14].bitrate = 130Mbps
*.switch13.eth[15].bitrate = 210Mbps
*.switch13.eth[16].bitrate = 130Mbps
*.switch13.eth[17].bitrate = 160Mbps
*.switch13.eth[18].bitrate = 190Mbps
*.switch13.eth[19].bitrate = 160Mbps
*.switch13.eth[20].bitrate = 230Mbps
*.switch13.eth[21].bitrate = 120Mbps
*.switch13.eth[22].bitrate = 120Mbps
*.host14.eth[0].bitrate = 100Mbps
*.switch14.eth[0].bitrate = 100Mbps
*.switch14.eth[1].bitrate = 120Mbps
*.switch14.eth[2].bitrate = 200Mbps
*.switch14.eth[3].bitrate = 160Mbps
*.switch14.eth[4].bitrate = 160Mbps
*.switch14.eth[5].bitrate = 120Mbps
*.switch14.eth[6].bitrate = 220Mbps
*.switch14.eth[7].bitrate = 200Mbps
*.switch14.eth[8].bitrate = 220Mbps
*.switch14.eth[9].bitrate = 120Mbps
*.switch14.eth[10].bitrate = 170Mbps
*.switch14.eth[11].bitrate = 170Mbps
*.switch14.eth[12].bitrate = 120Mbps
*.switch14.eth[13].bitrate = 170Mbps
*.switch14.eth[14].bitrate = 190Mbps
*.switch14.eth[15].bitrate = 190Mbps
*.switch14.eth[16].bitrate = 120Mbps
*.switch14.eth[17].bitrate = 200Mbps
*.switch14.eth[18].bitrate = 190Mbps
*.switch14.eth[19].bitrate = 160Mbps
*.switch14.eth[20].bitrate = 210Mbps
*.switch14.eth[21].bitrate = 160Mbps
*.switch14.eth[22].bitrate = 130Mbps
*.switch14.eth[23].bitrate = 210Mbps
*.switch14.eth[24].bitrate = 210Mbps
*.switch14.eth[25].bitrate = 210Mbps
*.switch14.eth[26].bitrate = 190Mbps
*.switch14.eth[27].bitrate = 190Mbps
*.host15.eth[0].bitrate = 100Mbps
*.switch15.eth[0].bitrate = 100Mbps
*.switch15.eth[1].bitrate = 200Mbps
*.switch15.eth[2].bitrate = 190Mbps
*.switch15.eth[3].bitrate = 220Mbps
*.switch15.eth[4].bitrate = 210Mbps
*.switch15.eth[5].bitrate = 200Mbps
*.switch15.eth[6].bitrate = 120Mbps
*.switch15.eth[7].bitrate = 160Mbps
*.switch15.eth[8].bitrate = 210Mbps
*.switch15.eth[9].bitrate = 180Mbps
*.switch15.eth[10].bitrate = 120Mbps
*.switch15.eth[11].bitrate = 180Mbps
*.switch15.eth[12].bitrate = 170Mbps
*.switch15.eth[13].bitrate = 180Mbps
*.switch15.eth[14].bitrate = 160Mbps
*.switch15.eth[15].bitrate = 150Mbps
*.switch15.eth[16].bitrate = 170Mbps
*.switch15.eth[17].bitrate = 230Mbps
*.switch15.eth[18].bitrate = 120Mbps
*.switch15.eth[19].bitrate = 120Mbps
*.switch15.eth[20].bitrate = 210Mbps
*.switch15.eth[21].bitrate = 220Mbps
*.switch15.eth[22].bitrate = 130Mbps
*.switch15.eth[23].bitrate = 170Mbps
*.switch15.eth[24].bitrate = 240Mbps
*.switch15.eth[25].bitrate = 190Mbps
*.switch15.eth[26].bitrate = 240Mbps
*.switch15.eth[27].bitrate = 220Mbps
*.switch15.eth[28].bitrate = 170Mbps
*.switch15.eth[29].bitrate = 140Mbps
*.switch15.eth[30].bitrate = 240Mbps
*.switch15.eth[31].bitrate = 220Mbps
*.switch15.eth[32].bitrate = 120Mbps
*.switch15.eth[33].bitrate = 200Mbps
*.host16.eth[0].bitrate = 100Mbps
*.switch16.eth[0].bitrate = 100Mbps
*.switch16.eth[1].bitrate = 220Mbps
*.switch16.eth[2].bitrate = 120Mbps
*.switch16.eth[3].bitrate = 210Mbps
*.switch16.eth[4].bitrate = 170Mbps
*.switch16.eth[5].bitrate = 120Mbps
*.switch16.eth[6].bitrate = 160Mbps
*.switch16.eth[7].bitrate = 150Mbps
*.switch16.eth[8].bitrate = 130Mbps
*.switch16.eth[9].bitrate = 170Mbps
*.switch16.eth[10].bitrate = 190Mbps
*.switch16.eth[11].bitrate = 230Mbps
*.switch16.eth[12].bitrate = 130Mbps
*.switch16.eth[13].bitrate = 140Mbps
*.switch16.eth[14].bitrate = 160Mbps
*.switch16.eth[15].bitrate = 150Mbps
*.switch16.eth[16].bitrate = 150Mbps
*.switch16.eth[17].bitrate = 130Mbps
*.switch16.eth[18].bitrate = 150Mbps
*.switch16.eth[19].bitrate = 190Mbps
*.switch16.eth[20].bitrate = 120Mbps
*.switch16.eth[21].bitrate = 150Mbps
*.switch16.eth[22].bitrate = 160Mbps
*.switch16.eth[23].bitrate = 210Mbps
*.switch16.eth[24].bitrate = 170Mbps
*.switch16.eth[25].bitrate = 120Mbps
*.switch16.eth[26].bitrate = 130Mbps
*.switch16.eth[27].bitrate = 170Mbps
*.switch16.eth[28].bitrate = 140Mbps
*.switch16.eth[29].bitrate = 230Mbps
*.switch16.eth[30].bitrate = 230Mbps
*.switch16.eth[31].bitrate = 140Mbps
*.switch16.eth[32].bitrate = 140Mbps
*.switch16.eth[33].bitrate = 210Mbps
*.switch16.eth[34].bitrate = 180Mbps
*.switch16.eth[35].bitrate = 130Mbps
*.switch16.eth[36].bitrate = 150Mbps
*.switch16.eth[37].bitrate = 180Mbps
*.switch16.eth[38].bitrate = 160Mbps
*.host17.eth[0].bitrate = 100Mbps
*.switch17.eth[0].bitrate = 100Mbps
*.switch17.eth[1].bitrate = 240Mbps
*.switch17.eth[2].bitrate = 240Mbps
*.switch17.eth[3].bitrate = 170Mbps
*.switch17.eth[4].bitrate = 230Mbps
*.switch17.eth[5].bitrate = 240Mbps
*.switch17.eth[6].bitrate = 190Mbps
*.switch17.eth[7].bitrate = 230Mbps
*.switch17.eth[8].bitrate = 210Mbps
*.switch17.eth[9].bitrate = 220Mbps
*.switch17.eth[10].bitrate = 230Mbps
*.switch17.eth[11].bitrate = 120Mbps
*.switch17.eth[12].bitrate = 190Mbps
*.switch17.eth[13].bitrate = 210Mbps
*.switch17.eth[14].bitrate = 150Mbps
*.switch17.eth[15].bitrate = 210Mbps
*.switch17.eth[16].bitrate = 220Mbps
*.switch17.eth[17].bitrate = 230Mbps
*.switch17.eth[18].bitrate = 240Mbps
*.switch17.eth[19].bitrate = 230Mbps
*.switch17.eth[20].bitrate = 160Mbps
*.switch17.eth[21].bitrate = 160Mbps
*.switch17.eth[22].bitrate = 120Mbps
*.switch17.eth[23].bitrate = 180Mbps
*.switch17.eth[24].bitrate = 190Mbps
*.switch17.eth[25].bitrate = 210Mbps
*.switch17.eth[26].bitrate = 140Mbps
*.switch17.eth[27].bitrate = 210Mbps
*.switch17.eth[28].bitrate = 140Mbps
*.switch17.eth[29].bitrate = 140Mbps
*.switch17.eth[30].bitrate = 230Mbps
*.switch17.eth[31].bitrate = 210Mbps
*.switch17.eth[32].bitrate = 150Mbps
*.switch17.eth[33].bitrate = 180Mbps
*.switch17.eth[34].bitrate = 130Mbps
*.switch17.eth[35].bitrate = 230Mbps
*.switch17.eth[36].bitrate = 240Mbps
*.switch17.eth[37].bitrate = 220Mbps
*.host18.eth[0].bitrate = 100Mbps
*.switch18.eth[0].bitrate = 100Mbps
*.switch18.eth[1].bitrate = 160Mbps
*.switch18.eth[2].bitrate = 170Mbps
*.switch18.eth[3].bitrate = 220Mbps
*.switch18.eth[4].bitrate = 220Mbps
*.switch18.eth[5].bitrate = 140Mbps
*.switch18.eth[6].bitrate = 230Mbps
*.switch18.eth[7].bitrate = 220Mbps
*.switch18.eth[8].bitrate = 170Mbps
*.switch18.eth[9].bitrate = 190Mbps
*.switch18.eth[10].bitrate = 240Mbps
*.switch18.eth[11].bitrate = 130Mbps
*.switch18.eth[12].bitrate = 130Mbps
*.switch18.eth[13].bitrate = 120Mbps
*.switch18.eth[14].bitrate = 160Mbps
*.switch18.eth[15].bitrate = 160Mbps
*.switch18.eth[16].bitrate = 240Mbps
*.switch18.eth[17].bitrate = 180Mbps
*.switch18.eth[18].bitrate = 230Mbps
*.switch18.eth[19].bitrate = 190Mbps
*.switch18.eth[20].bitrate = 220Mbps
*.switch18.eth[21].bitrate = 120Mbps
*.switch18.eth[22].bitrate = 120Mbps
*.switch18.eth[23].bitrate = 180Mbps
*.switch18.eth[24].bitrate = 180Mbps
*.switch18.eth[25].bitrate = 210Mbps
*.switch18.eth[26].bitrate = 240Mbps
*.switch18.eth[27].bitrate = 180Mbps
*.switch18.eth[28].bitrate = 130Mbps
*.switch18.eth[29].bitrate = 190Mbps
*.switch18.eth[30].bitrate = 120Mbps
*.switch18.eth[31].bitrate = 200Mbps
*.switch18.eth[32].bitrate = 140Mbps
*.switch18.eth[33].bitrate = 140Mbps
*.switch18.eth[34].bitrate = 210Mbps
*.switch18.eth[35].bitrate = 200Mbps
*.switch18.eth[36].bitrate = 120Mbps
*.host19.eth[0].bitrate = 100Mbps
*.switch19.eth[0].bitrate = 100Mbps
*.switch19.eth[1].bitrate = 120Mbps
*.switch19.eth[2].bitrate = 170Mbps
*.switch19.eth[3].bitrate = 140Mbps
*.switch19.eth[4].bitrate = 160Mbps
*.switch19.eth[5].bitrate = 140Mbps
*.switch19.eth[6].bitrate = 230Mbps
*.switch19.eth[7].bitrate = 230Mbps
*.switch19.eth[8].bitrate = 140Mbps
*.switch19.eth[9].bitrate = 130Mbps
*.switch19.eth[10].bitrate = 130Mbps
*.switch19.eth[11].bitrate = 130Mbps
*.switch19.eth[12].bitrate = 160Mbps
*.switch19.eth[13].bitrate = 190Mbps
*.switch19.eth[14].bitrate = 170Mbps
*.switch19.eth[15].bitrate = 140Mbps
*.switch19.eth[16].bitrate = 190Mbps
*.switch19.eth[17].bitrate = 120Mbps
*.switch19.eth[18].bitrate = 230Mbps
*.switch19.eth[19].bitrate = 180Mbps
*.switch19.eth[20].bitrate = 230Mbps
*.switch19.eth[21].bitrate = 230Mbps
*.switch19.eth[22].bitrate = 190Mbps
*.switch19.eth[23].bitrate = 130Mbps
*.switch19.eth[24].bitrate = 210Mbps
*.switch19.eth[25].bitrate = 160Mbps
*.switch19.eth[26].bitrate = 240Mbps
*.switch19.eth[27].bitrate = 130Mbps
*.switch19.eth[28].bitrate = 160Mbps
*.switch19.eth[29].bitrate = 190Mbps
*.switch19.eth[30].bitrate = 220Mbps
*.switch19.eth[31].bitrate = 130Mbps
*.switch19.eth[32].bitrate = 230Mbps
*.switch19.eth[33].bitrate = 140Mbps
*.switch19.eth[34].bitrate = 240Mbps
*.switch19.eth[35].bitrate = 170Mbps
*.switch19.eth[36].bitrate = 160Mbps
*.switch19.eth[37].bitrate = 240Mbps
*.switch19.eth[38].bitrate = 120Mbps
*.switch19.eth[39].bitrate = 150Mbps
*.switch19.eth[40].bitrate = 200Mbps
*.host20.eth[0].bitrate = 100Mbps
*.switch20.eth[0].bitrate = 100Mbps
*.switch20.eth[1].bitrate = 210Mbps
*.switch20.eth[2].bitrate = 160Mbps
*.switch20.eth[3].bitrate = 170Mbps
*.switch20.eth[4].bitrate = 240Mbps
*.switch20.eth[5].bitrate = 190Mbps
*.switch20.eth[6].bitrate = 150Mbps
*.switch20.eth[7].bitrate = 140Mbps
*.switch20.eth[8].bitrate = 140Mbps
*.switch20.eth[9].bitrate = 140Mbps
*.switch20.eth[10].bitrate = 120Mbps
*.switch20.eth[11].bitrate = 240Mbps
*.switch20.eth[12].bitrate = 240Mbps
*.switch20.eth[13].bitrate = 150Mbps
*.switch20.eth[14].bitrate = 240Mbps
*.switch20.eth[15].bitrate = 180Mbps
*.host21.eth[0].bitrate = 100Mbps
*.switch21.eth[0].bitrate = 100Mbps
*.switch21.eth[1].bitrate = 210Mbps
*.switch21.eth[2].bitrate = 200Mbps
*.switch21.eth[3].bitrate = 190Mbps
*.switch21.eth[4].bitrate = 160Mbps
*.switch21.eth[5].bitrate = 160Mbps
*.switch21.eth[6].bitrate = 230Mbps
*.switch21.eth[7].bitrate = 130Mbps
*.switch21.eth[8].bitrate = 190Mbps
*.switch21.eth[9].bitrate = 240Mbps
*.switch21.eth[10].bitrate = 230Mbps
*.switch21.eth[11].bitrate = 230Mbps
*.switch21.eth[12].bitrate = 170Mbps
*.switch21.eth[13].bitrate = 240Mbps
*.switch21.eth[14].bitrate = 130Mbps
*.switch21.eth[15].bitrate = 200Mbps
*.switch21.eth[16].bitrate = 130Mbps
*.switch21.eth[17].bitrate = 200Mbps
*.switch21.eth[18].bitrate = 160Mbps
*.switch21.eth[19].bitrate = 190Mbps
*.switch21.eth[20].bitrate = 210Mbps
*.switch21.eth[21].bitrate = 140Mbps
*.switch21.eth[22].bitrate = 150Mbps
*.switch21.eth[23].bitrate = 200Mbps
*.switch21.eth[24].bitrate = 130Mbps
*.host22.eth[0].bitrate = 100Mbps
*.switch22.eth[0].bitrate = 100Mbps
*.switch22.eth[1].bitrate = 120Mbps
*.switch22.eth[2].bitrate = 200Mbps
*.switch22.eth[3].bitrate = 240Mbps
*.switch22.eth[4].bitrate = 200Mbps
*.switch22.eth[5].bitrate = 120Mbps
*.switch22.eth[6].bitrate = 180Mbps
*.switch22.eth[7].bitrate = 150Mbps
*.switch22.eth[8].bitrate = 160Mbps
*.switch22.eth[9].bitrate = 130Mbps
*.switch22.eth[10].bitrate = 230Mbps
*.switch22.eth[11].bitrate = 210Mbps
*.switch22.eth[12].bitrate = 160Mbps
*.switch22.eth[13].bitrate = 140Mbps
*.switch22.eth[14].bitrate = 220Mbps
*.switch22.eth[15].bitrate = 220Mbps
*.switch22.eth[16].bitrate = 140Mbps
*.switch22.eth[17].bitrate = 150Mbps
*.switch22.eth[18].bitrate = 200Mbps
*.switch22.eth[19].bitrate = 230Mbps
*.switch22.eth[20].bitrate = 140Mbps
*.switch22.eth[21].bitrate = 160Mbps
*.switch22.eth[22].bitrate = 140Mbps
*.switch22.eth[23].bitrate = 180Mbps
*.switch22.eth[24].bitrate = 230Mbps
*.switch22.eth[25].bitrate = 120Mbps
*.switch22.eth[26].bitrate = 150Mbps
*.switch22.eth[27].bitrate = 240Mbps
*.switch22.eth[28].bitrate = 150Mbps
*.switch22.eth[29].bitrate = 150Mbps
*.switch22.eth[30].bitrate = 170Mbps
*.switch22.eth[31].bitrate = 200Mbps
*.switch22.eth[32].bitrate = 160Mbps
*.host23.eth[0].bitrate = 100Mbps
*.switch23.eth[0].bitrate = 100Mbps
*.switch23.eth[1].bitrate = 130Mbps
*.switch23.eth[2].bitrate = 220Mbps
*.switch23.eth[3].bitrate = 140Mbps
*.switch23.eth[4].bitrate = 240Mbps
*.switch23.eth[5].bitrate = 220Mbps
*.switch23.eth[6].bitrate = 160Mbps
*.switch23.eth[7].bitrate = 150Mbps
*.switch23.eth[8].bitrate = 140Mbps
*.switch23.eth[9].bitrate = 170Mbps
*.switch23.eth[10].bitrate = 200Mbps
*.switch23.eth[11].bitrate = 150Mbps
*.switch23.eth[12].bitrate = 140Mbps