[General]
network = TSN_multipath
sim-time-limit = 10ms
*.macForwardingTableConfigurator.typename = ""
*.*.hasStreamRedundancy = true
*.*.bridging.streamRelay.typename = "StreamRelayLayer"
*.*.bridging.streamCoder.typename = "StreamCoderLayer"
*.streamRedundancyConfigurator.typename = "StreamRedundancyConfigurator"
*.host0.eth[0].bitrate = 1000Mbps
*.switch0.eth[0].bitrate = 1000Mbps
*.switch0.eth[1].bitrate = 1200Mbps
*.switch0.eth[2].bitrate = 1400Mbps
*.switch0.eth[3].bitrate = 2400Mbps
*.host1.eth[0].bitrate = 1000Mbps
*.switch1.eth[0].bitrate = 1000Mbps
*.switch1.eth[1].bitrate = 1200Mbps
*.switch1.eth[2].bitrate = 1200Mbps
*.switch1.eth[3].bitrate = 2300Mbps
*.switch1.eth[4].bitrate = 1400Mbps
*.switch1.eth[5].bitrate = 1500Mbps
*.switch1.eth[6].bitrate = 2000Mbps
*.switch1.eth[7].bitrate = 1500Mbps
*.host2.eth[0].bitrate = 1000Mbps
*.switch2.eth[0].bitrate = 1000Mbps
*.switch2.eth[1].bitrate = 1200Mbps
*.switch2.eth[2].bitrate = 1500Mbps
*.switch2.eth[3].bitrate = 1500Mbps
*.host3.eth[0].bitrate = 1000Mbps
*.switch3.eth[0].bitrate = 1000Mbps
*.switch3.eth[1].bitrate = 2300Mbps
*.switch3.eth[2].bitrate = 1400Mbps
*.switch3.eth[3].bitrate = 2000Mbps
*.switch3.eth[4].bitrate = 1500Mbps
*.host4.eth[0].bitrate = 1000Mbps
*.switch4.eth[0].bitrate = 1000Mbps
*.switch4.eth[1].bitrate = 1400Mbps
*.switch4.eth[2].bitrate = 1500Mbps
*.switch4.eth[3].bitrate = 2400Mbps
*.switch4.eth[4].bitrate = 1500Mbps
*.switch4.eth[5].bitrate = 1500Mbps
*.host0.numApps = 6
*.host0.app[0].typename = "UdpSourceApp"
*.host0.app[0].io.destAddress = "host1"
*.host0.app[0].source.packetNameFormat = "%M-%m-%c"
*.host0.app[0].source.displayStringTextFormat = "sent %p pk (%l)"
*.host0.app[0].source.packetLength = 24B
*.host0.app[0].source.productionInterval = 1ms
*.host0.app[0].display-name = "type1_2"
*.host0.app[0].io.destPort = 1001
*.host0.app[1].typename = "UdpSinkApp"
*.host0.app[1].io.localPort = 1000
*.host0.app[2].typename = "UdpBasicApp"
*.host0.app[2].destAddresses = "host2"
*.host0.app[2].source.packetNameFormat = "%M-%m-%c"
*.host0.app[2].source.displayStringTextFormat = "sent %p pk (%l)"
*.host0.app[2].messageLength = 20B
*.host0.app[2].sendInterval = 1ms
*.host0.app[2].startTime = 2100us
*.host0.app[2].stopTime = 2700us
*.host0.app[2].display-name = "type2_2"
*.host0.app[2].destPort = 1001
*.host0.app[3].typename = "UdpBasicApp"
*.host0.app[3].destAddresses = "host2"
*.host0.app[3].source.packetNameFormat = "%M-%m-%c"
*.host0.app[3].source.displayStringTextFormat = "sent %p pk (%l)"
*.host0.app[3].messageLength = 20B
*.host0.app[3].sendInterval = 1ms
*.host0.app[3].startTime = 3900us
*.host0.app[3].stopTime = 4500us
*.host0.app[3].display-name = "type2_2"
*.host0.app[3].destPort = 1001
*.host0.app[4].typename = "UdpBasicApp"
*.host0.app[4].destAddresses = "host2"
*.host0.app[4].source.packetNameFormat = "%M-%m-%c"
*.host0.app[4].source.displayStringTextFormat = "sent %p pk (%l)"
*.host0.app[4].messageLength = 20B
*.host0.app[4].sendInterval = 1ms
*.host0.app[4].startTime = 6400us
*.host0.app[4].stopTime = 7200us
*.host0.app[4].display-name = "type2_2"
*.host0.app[4].destPort = 1001
*.host0.app[5].typename = "UdpBasicApp"
*.host0.app[5].destAddresses = "host2"
*.host0.app[5].source.packetNameFormat = "%M-%m-%c"
*.host0.app[5].source.displayStringTextFormat = "sent %p pk (%l)"
*.host0.app[5].messageLength = 20B
*.host0.app[5].sendInterval = 1ms
*.host0.app[5].startTime = 7800us
*.host0.app[5].stopTime = 9800us
*.host0.app[5].display-name = "type2_2"
*.host0.app[5].destPort = 1001
*.host1.numApps = 3
*.host1.app[0].typename = "UdpSourceApp"
*.host1.app[0].io.destAddress = "host2"
*.host1.app[0].source.packetNameFormat = "%M-%m-%c"
*.host1.app[0].source.displayStringTextFormat = "sent %p pk (%l)"
*.host1.app[0].source.packetLength = 19B
*.host1.app[0].source.productionInterval = 1ms
*.host1.app[0].display-name = "type1_0"
*.host1.app[0].io.destPort = 1000
*.host1.app[1].typename = "UdpSinkApp"
*.host1.app[1].io.localPort = 1000
*.host1.app[2].typename = "UdpSinkApp"
*.host1.app[2].io.localPort = 1001
*.host2.numApps = 20
*.host2.app[0].typename = "UdpSinkApp"
*.host2.app[0].io.localPort = 1000
*.host2.app[1].typename = "UdpBasicApp"
*.host2.app[1].destAddresses = "host0"
*.host2.app[1].source.packetNameFormat = "%M-%m-%c"
*.host2.app[1].source.displayStringTextFormat = "sent %p pk (%l)"
*.host2.app[1].messageLength = 18B
*.host2.app[1].sendInterval = 1ms
*.host2.app[1].startTime = 600us
*.host2.app[1].stopTime = 1600us
*.host2.app[1].display-name = "type2_0"
*.host2.app[1].destPort = 1000
*.host2.app[2].typename = "UdpBasicApp"
*.host2.app[2].destAddresses = "host0"
*.host2.app[2].source.packetNameFormat = "%M-%m-%c"
*.host2.app[2].source.displayStringTextFormat = "sent %p pk (%l)"
*.host2.app[2].messageLength = 18B
*.host2.app[2].sendInterval = 1ms
*.host2.app[2].startTime = 1700us
*.host2.app[2].stopTime = 3000us
*.host2.app[2].display-name = "type2_0"
*.host2.app[2].destPort = 1000
*.host2.app[3].typename = "UdpBasicApp"
*.host2.app[3].destAddresses = "host0"
*.host2.app[3].source.packetNameFormat = "%M-%m-%c"
*.host2.app[3].source.displayStringTextFormat = "sent %p pk (%l)"
*.host2.app[3].messageLength = 18B
*.host2.app[3].sendInterval = 1ms
*.host2.app[3].startTime = 3700us
*.host2.app[3].stopTime = 3800us
*.host2.app[3].display-name = "type2_0"
*.host2.app[3].destPort = 1000
*.host2.app[4].typename = "UdpBasicApp"
*.host2.app[4].destAddresses = "host0"
*.host2.app[4].source.packetNameFormat = "%M-%m-%c"
*.host2.app[4].source.displayStringTextFormat = "sent %p pk (%l)"
*.host2.app[4].messageLength = 18B
*.host2.app[4].sendInterval = 1ms
*.host2.app[4].startTime = 3900us
*.host2.app[4].stopTime = 4400us
*.host2.app[4].display-name = "type2_0"
*.host2.app[4].destPort = 1000
*.host2.app[5].typename = "UdpBasicApp"
*.host2.app[5].destAddresses = "host0"
*.host2.app[5].source.packetNameFormat = "%M-%m-%c"
*.host2.app[5].source.displayStringTextFormat = "sent %p pk (%l)"
*.host2.app[5].messageLength = 18B
*.host2.app[5].sendInterval = 1ms
*.host2.app[5].startTime = 5500us
*.host2.app[5].stopTime = 5700us
*.host2.app[5].display-name = "type2_0"
*.host2.app[5].destPort = 1000
*.host2.app[6].typename = "UdpBasicApp"
*.host2.app[6].destAddresses = "host0"
*.host2.app[6].source.packetNameFormat = "%M-%m-%c"
*.host2.app[6].source.displayStringTextFormat = "sent %p pk (%l)"
*.host2.app[6].messageLength = 18B
*.host2.app[6].sendInterval = 1ms
*.host2.app[6].startTime = 6200us
*.host2.app[6].stopTime = 6400us
*.host2.app[6].display-name = "type2_0"
*.host2.app[6].destPort = 1000
*.host2.app[7].typename = "UdpBasicApp"
*.host2.app[7].destAddresses = "host0"
*.host2.app[7].source.packetNameFormat = "%M-%m-%c"
*.host2.app[7].source.displayStringTextFormat = "sent %p pk (%l)"
*.host2.app[7].messageLength = 18B
*.host2.app[7].sendInterval = 1ms
*.host2.app[7].startTime = 6500us
*.host2.app[7].stopTime = 6600us
*.host2.app[7].display-name = "type2_0"
*.host2.app[7].destPort = 1000
*.host2.app[8].typename = "UdpBasicApp"
*.host2.app[8].destAddresses = "host0"
*.host2.app[8].source.packetNameFormat = "%M-%m-%c"
*.host2.app[8].source.displayStringTextFormat = "sent %p pk (%l)"
*.host2.app[8].messageLength = 18B
*.host2.app[8].sendInterval = 1ms
*.host2.app[8].startTime = 6900us
*.host2.app[8].stopTime = 7800us
*.host2.app[8].display-name = "type2_0"
*.host2.app[8].destPort = 1000
*.host2.app[9].typename = "UdpBasicApp"
*.host2.app[9].destAddresses = "host0"
*.host2.app[9].source.packetNameFormat = "%M-%m-%c"
*.host2.app[9].source.displayStringTextFormat = "sent %p pk (%l)"
*.host2.app[9].messageLength = 18B
*.host2.app[9].sendInterval = 1ms
*.host2.app[9].startTime = 8100us
*.host2.app[9].stopTime = 9000us
*.host2.app[9].display-name = "type2_0"
*.host2.app[9].destPort = 1000
*.host2.app[10].typename = "UdpBasicApp"
*.host2.app[10].destAddresses = "host0"
*.host2.app[10].source.packetNameFormat = "%M-%m-%c"
*.host2.app[10].source.displayStringTextFormat = "sent %p pk (%l)"
*.host2.app[10].messageLength = 18B
*.host2.app[10].sendInterval = 1ms
*.host2.app[10].startTime = 9100us
*.host2.app[10].stopTime = 9300us
*.host2.app[10].display-name = "type2_0"
*.host2.app[10].destPort = 1000
*.host2.app[11].typename = "UdpBasicApp"
*.host2.app[11].destAddresses = "host4"
*.host2.app[11].source.packetNameFormat = "%M-%m-%c"
*.host2.app[11].source.displayStringTextFormat = "sent %p pk (%l)"
*.host2.app[11].messageLength = 12B
*.host2.app[11].sendInterval = 1ms
*.host2.app[11].startTime = 100us
*.host2.app[11].stopTime = 200us
*.host2.app[11].display-name = "type2_1"
*.host2.app[11].destPort = 1000
*.host2.app[12].typename = "UdpBasicApp"
*.host2.app[12].destAddresses = "host4"
*.host2.app[12].source.packetNameFormat = "%M-%m-%c"
*.host2.app[12].source.displayStringTextFormat = "sent %p pk (%l)"
*.host2.app[12].messageLength = 12B
*.host2.app[12].sendInterval = 1ms
*.host2.app[12].startTime = 800us
*.host2.app[12].stopTime = 1000us
*.host2.app[12].display-name = "type2_1"
*.host2.app[12].destPort = 1000
*.host2.app[13].typename = "UdpBasicApp"
*.host2.app[13].destAddresses = "host4"
*.host2.app[13].source.packetNameFormat = "%M-%m-%c"
*.host2.app[13].source.displayStringTextFormat = "sent %p pk (%l)"
*.host2.app[13].messageLength = 12B
*.host2.app[13].sendInterval = 1ms
*.host2.app[13].startTime = 2000us
*.host2.app[13].stopTime = 2900us
*.host2.app[13].display-name = "type2_1"
*.host2.app[13].destPort = 1000
*.host2.app[14].typename = "UdpBasicApp"
*.host2.app[14].destAddresses = "host4"
*.host2.app[14].source.packetNameFormat = "%M-%m-%c"
*.host2.app[14].source.displayStringTextFormat = "sent %p pk (%l)"
*.host2.app[14].messageLength = 12B
*.host2.app[14].sendInterval = 1ms
*.host2.app[14].startTime = 4000us
*.host2.app[14].stopTime = 5000us
*.host2.app[14].display-name = "type2_1"
*.host2.app[14].destPort = 1000
*.host2.app[15].typename = "UdpBasicApp"
*.host2.app[15].destAddresses = "host4"
*.host2.app[15].source.packetNameFormat = "%M-%m-%c"
*.host2.app[15].source.displayStringTextFormat = "sent %p pk (%l)"
*.host2.app[15].messageLength = 12B
*.host2.app[15].sendInterval = 1ms
*.host2.app[15].startTime = 5500us
*.host2.app[15].stopTime = 6100us
*.host2.app[15].display-name = "type2_1"
*.host2.app[15].destPort = 1000
*.host2.app[16].typename = "UdpBasicApp"
*.host2.app[16].destAddresses = "host4"
*.host2.app[16].source.packetNameFormat = "%M-%m-%c"
*.host2.app[16].source.displayStringTextFormat = "sent %p pk (%l)"
*.host2.app[16].messageLength = 12B
*.host2.app[16].sendInterval = 1ms
*.host2.app[16].startTime = 7400us
*.host2.app[16].stopTime = 7500us
*.host2.app[16].display-name = "type2_1"
*.host2.app[16].destPort = 1000
*.host2.app[17].typename = "UdpBasicApp"
*.host2.app[17].destAddresses = "host4"
*.host2.app[17].source.packetNameFormat = "%M-%m-%c"
*.host2.app[17].source.displayStringTextFormat = "sent %p pk (%l)"
*.host2.app[17].messageLength = 12B
*.host2.app[17].sendInterval = 1ms
*.host2.app[17].startTime = 7900us
*.host2.app[17].stopTime = 8900us
*.host2.app[17].display-name = "type2_1"
*.host2.app[17].destPort = 1000
*.host2.app[18].typename = "UdpBasicApp"
*.host2.app[18].destAddresses = "host4"
*.host2.app[18].source.packetNameFormat = "%M-%m-%c"
*.host2.app[18].source.displayStringTextFormat = "sent %p pk (%l)"
*.host2.app[18].messageLength = 12B
*.host2.app[18].sendInterval = 1ms
*.host2.app[18].startTime = 9900us
*.host2.app[18].stopTime = 10000us
*.host2.app[18].display-name = "type2_1"
*.host2.app[18].destPort = 1000
*.host2.app[19].typename = "UdpSinkApp"
*.host2.app[19].io.localPort = 1001
*.host3.numApps = 0
*.host4.numApps = 2
*.host4.app[0].typename = "UdpSourceApp"
*.host4.app[0].io.destAddress = "host1"
*.host4.app[0].source.packetNameFormat = "%M-%m-%c"
*.host4.app[0].source.displayStringTextFormat = "sent %p pk (%l)"
*.host4.app[0].source.packetLength = 12B
*.host4.app[0].source.productionInterval = 1ms
*.host4.app[0].display-name = "type1_1"
*.host4.app[0].io.destPort = 1000
*.host4.app[1].typename = "UdpSinkApp"
*.host4.app[1].io.localPort = 1000
*.streamRedundancyConfigurator.configuration = [
	{
		name: "S1-0",
		packetFilter: "*-type1_0-*",
		source: "host1",
		destination: "host2",
		trees: [[["host1", "switch1", "switch3", "switch4", "switch2", "host2"]]]
	},
	{
		name: "S1-1",
		packetFilter: "*-type1_1-*",
		source: "host4",
		destination: "host1",
		trees: [[["host4", "switch4", "switch1", "host1"]]]
	},
	{
		name: "S1-2",
		packetFilter: "*-type1_2-*",
		source: "host0",
		destination: "host1",
		trees: [[["host0", "switch0", "switch1", "host1"]]]
	},
	{
		name: "S2-0",
		packetFilter: "*-type2_0-*",
		source: "host2",
		destination: "host0",
		trees: [[["host2", "switch2", "switch1", "switch3", "switch0", "host0"]]]
	},
	{
		name: "S2-1",
		packetFilter: "*-type2_1-*",
		source: "host2",
		destination: "host4",
		trees: [[["host2", "switch2", "switch1", "switch4", "host4"]]]
	},
	{
		name: "S2-2",
		packetFilter: "*-type2_2-*",
		source: "host0",
		destination: "host2",
		trees: [[["host0", "switch0", "switch1", "switch4", "switch2", "host2"]]]
	}]
	

