[General]
network = TSN_multipath
sim-time-limit = 100ms
*.macForwardingTableConfigurator.typename = ""
*.*.hasStreamRedundancy = true
*.*.bridging.streamRelay.typename = "StreamRelayLayer"
*.*.bridging.streamCoder.typename = "StreamCoderLayer"
*.streamRedundancyConfigurator.typename = "StreamRedundancyConfigurator"
*.host0.eth[0].bitrate = 1000Mbps
*.switch0.eth[0].bitrate = 1000Mbps
*.switch0.eth[1].bitrate = 2300Mbps
*.switch0.eth[2].bitrate = 1500Mbps
*.switch0.eth[3].bitrate = 1500Mbps
*.switch0.eth[4].bitrate = 2000Mbps
*.switch0.eth[5].bitrate = 2400Mbps
*.switch0.eth[6].bitrate = 1500Mbps
*.host1.eth[0].bitrate = 1000Mbps
*.switch1.eth[0].bitrate = 1000Mbps
*.switch1.eth[1].bitrate = 2300Mbps
*.switch1.eth[2].bitrate = 2200Mbps
*.switch1.eth[3].bitrate = 2400Mbps
*.switch1.eth[4].bitrate = 2100Mbps
*.switch1.eth[5].bitrate = 1600Mbps
*.host2.eth[0].bitrate = 1000Mbps
*.switch2.eth[0].bitrate = 1000Mbps
*.switch2.eth[1].bitrate = 2200Mbps
*.switch2.eth[2].bitrate = 2000Mbps
*.switch2.eth[3].bitrate = 2100Mbps
*.switch2.eth[4].bitrate = 2200Mbps
*.host3.eth[0].bitrate = 1000Mbps
*.switch3.eth[0].bitrate = 1000Mbps
*.switch3.eth[1].bitrate = 1500Mbps
*.switch3.eth[2].bitrate = 2400Mbps
*.switch3.eth[3].bitrate = 1600Mbps
*.switch3.eth[4].bitrate = 1200Mbps
*.host4.eth[0].bitrate = 1000Mbps
*.switch4.eth[0].bitrate = 1000Mbps
*.switch4.eth[1].bitrate = 1500Mbps
*.switch4.eth[2].bitrate = 2400Mbps
*.switch4.eth[3].bitrate = 2200Mbps
*.switch4.eth[4].bitrate = 1500Mbps
*.switch4.eth[5].bitrate = 1200Mbps
*.host0.numApps = 4
*.host0.app[0].typename = "UdpBasicApp"
*.host0.app[0].destAddresses = "host3"
*.host0.app[0].source.packetNameFormat = "%M-%m-%c"
*.host0.app[0].source.displayStringTextFormat = "sent %p pk (%l)"
*.host0.app[0].messageLength = 17B
*.host0.app[0].sendInterval = 1ms
*.host0.app[0].startTime = 21ms
*.host0.app[0].stopTime = 22ms
*.host0.app[0].display-name = "type2_3"
*.host0.app[0].destPort = 1000
*.host0.app[1].typename = "UdpBasicApp"
*.host0.app[1].destAddresses = "host3"
*.host0.app[1].source.packetNameFormat = "%M-%m-%c"
*.host0.app[1].source.displayStringTextFormat = "sent %p pk (%l)"
*.host0.app[1].messageLength = 17B
*.host0.app[1].sendInterval = 1ms
*.host0.app[1].startTime = 32ms
*.host0.app[1].stopTime = 61ms
*.host0.app[1].display-name = "type2_3"
*.host0.app[1].destPort = 1000
*.host0.app[2].typename = "UdpBasicApp"
*.host0.app[2].destAddresses = "host3"
*.host0.app[2].source.packetNameFormat = "%M-%m-%c"
*.host0.app[2].source.displayStringTextFormat = "sent %p pk (%l)"
*.host0.app[2].messageLength = 17B
*.host0.app[2].sendInterval = 1ms
*.host0.app[2].startTime = 74ms
*.host0.app[2].stopTime = 100ms
*.host0.app[2].display-name = "type2_3"
*.host0.app[2].destPort = 1000
*.host0.app[3].typename = "UdpSinkApp"
*.host0.app[3].io.localPort = 1000
*.host1.numApps = 10
*.host1.app[0].typename = "UdpSinkApp"
*.host1.app[0].io.localPort = 1000
*.host1.app[1].typename = "UdpSinkApp"
*.host1.app[1].io.localPort = 1001
*.host1.app[2].typename = "UdpSinkApp"
*.host1.app[2].io.localPort = 1002
*.host1.app[3].typename = "UdpSinkApp"
*.host1.app[3].io.localPort = 1003
*.host1.app[4].typename = "UdpBasicApp"
*.host1.app[4].destAddresses = "host0"
*.host1.app[4].source.packetNameFormat = "%M-%m-%c"
*.host1.app[4].source.displayStringTextFormat = "sent %p pk (%l)"
*.host1.app[4].messageLength = 18B
*.host1.app[4].sendInterval = 1ms
*.host1.app[4].startTime = 22ms
*.host1.app[4].stopTime = 31ms
*.host1.app[4].display-name = "type2_5"
*.host1.app[4].destPort = 1000
*.host1.app[5].typename = "UdpBasicApp"
*.host1.app[5].destAddresses = "host0"
*.host1.app[5].source.packetNameFormat = "%M-%m-%c"
*.host1.app[5].source.displayStringTextFormat = "sent %p pk (%l)"
*.host1.app[5].messageLength = 18B
*.host1.app[5].sendInterval = 1ms
*.host1.app[5].startTime = 57ms
*.host1.app[5].stopTime = 63ms
*.host1.app[5].display-name = "type2_5"
*.host1.app[5].destPort = 1000
*.host1.app[6].typename = "UdpBasicApp"
*.host1.app[6].destAddresses = "host0"
*.host1.app[6].source.packetNameFormat = "%M-%m-%c"
*.host1.app[6].source.displayStringTextFormat = "sent %p pk (%l)"
*.host1.app[6].messageLength = 18B
*.host1.app[6].sendInterval = 1ms
*.host1.app[6].startTime = 66ms
*.host1.app[6].stopTime = 67ms
*.host1.app[6].display-name = "type2_5"
*.host1.app[6].destPort = 1000
*.host1.app[7].typename = "UdpBasicApp"
*.host1.app[7].destAddresses = "host0"
*.host1.app[7].source.packetNameFormat = "%M-%m-%c"
*.host1.app[7].source.displayStringTextFormat = "sent %p pk (%l)"
*.host1.app[7].messageLength = 18B
*.host1.app[7].sendInterval = 1ms
*.host1.app[7].startTime = 78ms
*.host1.app[7].stopTime = 79ms
*.host1.app[7].display-name = "type2_5"
*.host1.app[7].destPort = 1000
*.host1.app[8].typename = "UdpBasicApp"
*.host1.app[8].destAddresses = "host0"
*.host1.app[8].source.packetNameFormat = "%M-%m-%c"
*.host1.app[8].source.displayStringTextFormat = "sent %p pk (%l)"
*.host1.app[8].messageLength = 18B
*.host1.app[8].sendInterval = 1ms
*.host1.app[8].startTime = 80ms
*.host1.app[8].stopTime = 91ms
*.host1.app[8].display-name = "type2_5"
*.host1.app[8].destPort = 1000
*.host1.app[9].typename = "UdpBasicApp"
*.host1.app[9].destAddresses = "host0"
*.host1.app[9].source.packetNameFormat = "%M-%m-%c"
*.host1.app[9].source.displayStringTextFormat = "sent %p pk (%l)"
*.host1.app[9].messageLength = 18B
*.host1.app[9].sendInterval = 1ms
*.host1.app[9].startTime = 96ms
*.host1.app[9].stopTime = 100ms
*.host1.app[9].display-name = "type2_5"
*.host1.app[9].destPort = 1000
*.host2.numApps = 15
*.host2.app[0].typename = "UdpSinkApp"
*.host2.app[0].io.localPort = 1000
*.host2.app[1].typename = "UdpSourceApp"
*.host2.app[1].io.destAddress = "host4"
*.host2.app[1].source.packetNameFormat = "%M-%m-%c"
*.host2.app[1].source.displayStringTextFormat = "sent %p pk (%l)"
*.host2.app[1].source.packetLength = 12B
*.host2.app[1].source.productionInterval = 1ms
*.host2.app[1].display-name = "type1_1"
*.host2.app[1].io.destPort = 1000
*.host2.app[2].typename = "UdpBasicApp"
*.host2.app[2].destAddresses = "host1"
*.host2.app[2].source.packetNameFormat = "%M-%m-%c"
*.host2.app[2].source.displayStringTextFormat = "sent %p pk (%l)"
*.host2.app[2].messageLength = 13B
*.host2.app[2].sendInterval = 1ms
*.host2.app[2].startTime = 9ms
*.host2.app[2].stopTime = 11ms
*.host2.app[2].display-name = "type2_0"
*.host2.app[2].destPort = 1000
*.host2.app[3].typename = "UdpBasicApp"
*.host2.app[3].destAddresses = "host1"
*.host2.app[3].source.packetNameFormat = "%M-%m-%c"
*.host2.app[3].source.displayStringTextFormat = "sent %p pk (%l)"
*.host2.app[3].messageLength = 13B
*.host2.app[3].sendInterval = 1ms
*.host2.app[3].startTime = 19ms
*.host2.app[3].stopTime = 27ms
*.host2.app[3].display-name = "type2_0"
*.host2.app[3].destPort = 1000
*.host2.app[4].typename = "UdpBasicApp"
*.host2.app[4].destAddresses = "host1"
*.host2.app[4].source.packetNameFormat = "%M-%m-%c"
*.host2.app[4].source.displayStringTextFormat = "sent %p pk (%l)"
*.host2.app[4].messageLength = 13B
*.host2.app[4].sendInterval = 1ms
*.host2.app[4].startTime = 59ms
*.host2.app[4].stopTime = 72ms
*.host2.app[4].display-name = "type2_0"
*.host2.app[4].destPort = 1000
*.host2.app[5].typename = "UdpBasicApp"
*.host2.app[5].destAddresses = "host1"
*.host2.app[5].source.packetNameFormat = "%M-%m-%c"
*.host2.app[5].source.displayStringTextFormat = "sent %p pk (%l)"
*.host2.app[5].messageLength = 13B
*.host2.app[5].sendInterval = 1ms
*.host2.app[5].startTime = 73ms
*.host2.app[5].stopTime = 76ms
*.host2.app[5].display-name = "type2_0"
*.host2.app[5].destPort = 1000
*.host2.app[6].typename = "UdpBasicApp"
*.host2.app[6].destAddresses = "host1"
*.host2.app[6].source.packetNameFormat = "%M-%m-%c"
*.host2.app[6].source.displayStringTextFormat = "sent %p pk (%l)"
*.host2.app[6].messageLength = 13B
*.host2.app[6].sendInterval = 1ms
*.host2.app[6].startTime = 93ms
*.host2.app[6].stopTime = 94ms
*.host2.app[6].display-name = "type2_0"
*.host2.app[6].destPort = 1000
*.host2.app[7].typename = "UdpBasicApp"
*.host2.app[7].destAddresses = "host1"
*.host2.app[7].source.packetNameFormat = "%M-%m-%c"
*.host2.app[7].source.displayStringTextFormat = "sent %p pk (%l)"
*.host2.app[7].messageLength = 12B
*.host2.app[7].sendInterval = 1ms
*.host2.app[7].startTime = 4ms
*.host2.app[7].stopTime = 12ms
*.host2.app[7].display-name = "type2_4"
*.host2.app[7].destPort = 1003
*.host2.app[8].typename = "UdpBasicApp"
*.host2.app[8].destAddresses = "host1"
*.host2.app[8].source.packetNameFormat = "%M-%m-%c"
*.host2.app[8].source.displayStringTextFormat = "sent %p pk (%l)"
*.host2.app[8].messageLength = 12B
*.host2.app[8].sendInterval = 1ms
*.host2.app[8].startTime = 18ms
*.host2.app[8].stopTime = 22ms
*.host2.app[8].display-name = "type2_4"
*.host2.app[8].destPort = 1003
*.host2.app[9].typename = "UdpBasicApp"
*.host2.app[9].destAddresses = "host1"
*.host2.app[9].source.packetNameFormat = "%M-%m-%c"
*.host2.app[9].source.displayStringTextFormat = "sent %p pk (%l)"
*.host2.app[9].messageLength = 12B
*.host2.app[9].sendInterval = 1ms
*.host2.app[9].startTime = 37ms
*.host2.app[9].stopTime = 38ms
*.host2.app[9].display-name = "type2_4"
*.host2.app[9].destPort = 1003
*.host2.app[10].typename = "UdpBasicApp"
*.host2.app[10].destAddresses = "host1"
*.host2.app[10].source.packetNameFormat = "%M-%m-%c"
*.host2.app[10].source.displayStringTextFormat = "sent %p pk (%l)"
*.host2.app[10].messageLength = 12B
*.host2.app[10].sendInterval = 1ms
*.host2.app[10].startTime = 43ms
*.host2.app[10].stopTime = 45ms
*.host2.app[10].display-name = "type2_4"
*.host2.app[10].destPort = 1003
*.host2.app[11].typename = "UdpBasicApp"
*.host2.app[11].destAddresses = "host1"
*.host2.app[11].source.packetNameFormat = "%M-%m-%c"
*.host2.app[11].source.displayStringTextFormat = "sent %p pk (%l)"
*.host2.app[11].messageLength = 12B
*.host2.app[11].sendInterval = 1ms
*.host2.app[11].startTime = 47ms
*.host2.app[11].stopTime = 53ms
*.host2.app[11].display-name = "type2_4"
*.host2.app[11].destPort = 1003
*.host2.app[12].typename = "UdpBasicApp"
*.host2.app[12].destAddresses = "host1"
*.host2.app[12].source.packetNameFormat = "%M-%m-%c"
*.host2.app[12].source.displayStringTextFormat = "sent %p pk (%l)"
*.host2.app[12].messageLength = 12B
*.host2.app[12].sendInterval = 1ms
*.host2.app[12].startTime = 72ms
*.host2.app[12].stopTime = 77ms
*.host2.app[12].display-name = "type2_4"
*.host2.app[12].destPort = 1003
*.host2.app[13].typename = "UdpBasicApp"
*.host2.app[13].destAddresses = "host1"
*.host2.app[13].source.packetNameFormat = "%M-%m-%c"
*.host2.app[13].source.displayStringTextFormat = "sent %p pk (%l)"
*.host2.app[13].messageLength = 12B
*.host2.app[13].sendInterval = 1ms
*.host2.app[13].startTime = 87ms
*.host2.app[13].stopTime = 92ms
*.host2.app[13].display-name = "type2_4"
*.host2.app[13].destPort = 1003
*.host2.app[14].typename = "UdpBasicApp"
*.host2.app[14].destAddresses = "host1"
*.host2.app[14].source.packetNameFormat = "%M-%m-%c"
*.host2.app[14].source.displayStringTextFormat = "sent %p pk (%l)"
*.host2.app[14].messageLength = 12B
*.host2.app[14].sendInterval = 1ms
*.host2.app[14].startTime = 94ms
*.host2.app[14].stopTime = 97ms
*.host2.app[14].display-name = "type2_4"
*.host2.app[14].destPort = 1003
*.host3.numApps = 16
*.host3.app[0].typename = "UdpSourceApp"
*.host3.app[0].io.destAddress = "host2"
*.host3.app[0].source.packetNameFormat = "%M-%m-%c"
*.host3.app[0].source.displayStringTextFormat = "sent %p pk (%l)"
*.host3.app[0].source.packetLength = 18B
*.host3.app[0].source.productionInterval = 1ms
*.host3.app[0].display-name = "type1_0"
*.host3.app[0].io.destPort = 1000
*.host3.app[1].typename = "UdpBasicApp"
*.host3.app[1].destAddresses = "host1"
*.host3.app[1].source.packetNameFormat = "%M-%m-%c"
*.host3.app[1].source.displayStringTextFormat = "sent %p pk (%l)"
*.host3.app[1].messageLength = 18B
*.host3.app[1].sendInterval = 1ms
*.host3.app[1].startTime = 1ms
*.host3.app[1].stopTime = 3ms
*.host3.app[1].display-name = "type2_1"
*.host3.app[1].destPort = 1001
*.host3.app[2].typename = "UdpBasicApp"
*.host3.app[2].destAddresses = "host1"
*.host3.app[2].source.packetNameFormat = "%M-%m-%c"
*.host3.app[2].source.displayStringTextFormat = "sent %p pk (%l)"
*.host3.app[2].messageLength = 18B
*.host3.app[2].sendInterval = 1ms
*.host3.app[2].startTime = 6ms
*.host3.app[2].stopTime = 17ms
*.host3.app[2].display-name = "type2_1"
*.host3.app[2].destPort = 1001
*.host3.app[3].typename = "UdpBasicApp"
*.host3.app[3].destAddresses = "host1"
*.host3.app[3].source.packetNameFormat = "%M-%m-%c"
*.host3.app[3].source.displayStringTextFormat = "sent %p pk (%l)"
*.host3.app[3].messageLength = 18B
*.host3.app[3].sendInterval = 1ms
*.host3.app[3].startTime = 26ms
*.host3.app[3].stopTime = 27ms
*.host3.app[3].display-name = "type2_1"
*.host3.app[3].destPort = 1001
*.host3.app[4].typename = "UdpBasicApp"
*.host3.app[4].destAddresses = "host1"
*.host3.app[4].source.packetNameFormat = "%M-%m-%c"
*.host3.app[4].source.displayStringTextFormat = "sent %p pk (%l)"
*.host3.app[4].messageLength = 18B
*.host3.app[4].sendInterval = 1ms
*.host3.app[4].startTime = 29ms
*.host3.app[4].stopTime = 37ms
*.host3.app[4].display-name = "type2_1"
*.host3.app[4].destPort = 1001
*.host3.app[5].typename = "UdpBasicApp"
*.host3.app[5].destAddresses = "host1"
*.host3.app[5].source.packetNameFormat = "%M-%m-%c"
*.host3.app[5].source.displayStringTextFormat = "sent %p pk (%l)"
*.host3.app[5].messageLength = 18B
*.host3.app[5].sendInterval = 1ms
*.host3.app[5].startTime = 47ms
*.host3.app[5].stopTime = 49ms
*.host3.app[5].display-name = "type2_1"
*.host3.app[5].destPort = 1001
*.host3.app[6].typename = "UdpBasicApp"
*.host3.app[6].destAddresses = "host1"
*.host3.app[6].source.packetNameFormat = "%M-%m-%c"
*.host3.app[6].source.displayStringTextFormat = "sent %p pk (%l)"
*.host3.app[6].messageLength = 18B
*.host3.app[6].sendInterval = 1ms
*.host3.app[6].startTime = 53ms
*.host3.app[6].stopTime = 54ms
*.host3.app[6].display-name = "type2_1"
*.host3.app[6].destPort = 1001
*.host3.app[7].typename = "UdpBasicApp"
*.host3.app[7].destAddresses = "host1"
*.host3.app[7].source.packetNameFormat = "%M-%m-%c"
*.host3.app[7].source.displayStringTextFormat = "sent %p pk (%l)"
*.host3.app[7].messageLength = 18B
*.host3.app[7].sendInterval = 1ms
*.host3.app[7].startTime = 71ms
*.host3.app[7].stopTime = 89ms
*.host3.app[7].display-name = "type2_1"
*.host3.app[7].destPort = 1001
*.host3.app[8].typename = "UdpBasicApp"
*.host3.app[8].destAddresses = "host1"
*.host3.app[8].source.packetNameFormat = "%M-%m-%c"
*.host3.app[8].source.displayStringTextFormat = "sent %p pk (%l)"
*.host3.app[8].messageLength = 18B
*.host3.app[8].sendInterval = 1ms
*.host3.app[8].startTime = 91ms
*.host3.app[8].stopTime = 94ms
*.host3.app[8].display-name = "type2_1"
*.host3.app[8].destPort = 1001
*.host3.app[9].typename = "UdpBasicApp"
*.host3.app[9].destAddresses = "host1"
*.host3.app[9].source.packetNameFormat = "%M-%m-%c"
*.host3.app[9].source.displayStringTextFormat = "sent %p pk (%l)"
*.host3.app[9].messageLength = 19B
*.host3.app[9].sendInterval = 1ms
*.host3.app[9].startTime = 0ms
*.host3.app[9].stopTime = 4ms
*.host3.app[9].display-name = "type2_2"
*.host3.app[9].destPort = 1002
*.host3.app[10].typename = "UdpBasicApp"
*.host3.app[10].destAddresses = "host1"
*.host3.app[10].source.packetNameFormat = "%M-%m-%c"
*.host3.app[10].source.displayStringTextFormat = "sent %p pk (%l)"
*.host3.app[10].messageLength = 19B
*.host3.app[10].sendInterval = 1ms
*.host3.app[10].startTime = 8ms
*.host3.app[10].stopTime = 14ms
*.host3.app[10].display-name = "type2_2"
*.host3.app[10].destPort = 1002
*.host3.app[11].typename = "UdpBasicApp"
*.host3.app[11].destAddresses = "host1"
*.host3.app[11].source.packetNameFormat = "%M-%m-%c"
*.host3.app[11].source.displayStringTextFormat = "sent %p pk (%l)"
*.host3.app[11].messageLength = 19B
*.host3.app[11].sendInterval = 1ms
*.host3.app[11].startTime = 30ms
*.host3.app[11].stopTime = 33ms
*.host3.app[11].display-name = "type2_2"
*.host3.app[11].destPort = 1002
*.host3.app[12].typename = "UdpBasicApp"
*.host3.app[12].destAddresses = "host1"
*.host3.app[12].source.packetNameFormat = "%M-%m-%c"
*.host3.app[12].source.displayStringTextFormat = "sent %p pk (%l)"
*.host3.app[12].messageLength = 19B
*.host3.app[12].sendInterval = 1ms
*.host3.app[12].startTime = 43ms
*.host3.app[12].stopTime = 55ms
*.host3.app[12].display-name = "type2_2"
*.host3.app[12].destPort = 1002
*.host3.app[13].typename = "UdpBasicApp"
*.host3.app[13].destAddresses = "host1"
*.host3.app[13].source.packetNameFormat = "%M-%m-%c"
*.host3.app[13].source.displayStringTextFormat = "sent %p pk (%l)"
*.host3.app[13].messageLength = 19B
*.host3.app[13].sendInterval = 1ms
*.host3.app[13].startTime = 65ms
*.host3.app[13].stopTime = 76ms
*.host3.app[13].display-name = "type2_2"
*.host3.app[13].destPort = 1002
*.host3.app[14].typename = "UdpBasicApp"
*.host3.app[14].destAddresses = "host1"
*.host3.app[14].source.packetNameFormat = "%M-%m-%c"
*.host3.app[14].source.displayStringTextFormat = "sent %p pk (%l)"
*.host3.app[14].messageLength = 19B
*.host3.app[14].sendInterval = 1ms
*.host3.app[14].startTime = 88ms
*.host3.app[14].stopTime = 96ms
*.host3.app[14].display-name = "type2_2"
*.host3.app[14].destPort = 1002
*.host3.app[15].typename = "UdpSinkApp"
*.host3.app[15].io.localPort = 1000
*.host4.numApps = 1
*.host4.app[0].typename = "UdpSinkApp"
*.host4.app[0].io.localPort = 1000
*.streamRedundancyConfigurator.configuration = [
	{
		name: "S1-0",
		packetFilter: "*-type1_0-*",
		source: "host3",
		destination: "host2",
		trees: [[["host3", "switch3", "switch0", "switch1", "switch2", "host2"]]]
	},
	{
		name: "S1-1",
		packetFilter: "*-type1_1-*",
		source: "host2",
		destination: "host4",
		trees: [[["host2", "switch2", "switch4", "host4"]]]
	},
	{
		name: "S2-0",
		packetFilter: "*-type2_0-*",
		source: "host2",
		destination: "host1",
		trees: [[["host2", "switch2", "switch1", "host1"]]]
	},
	{
		name: "S2-1",
		packetFilter: "*-type2_1-*",
		source: "host3",
		destination: "host1",
		trees: [[["host3", "switch3", "switch1", "host1"]]]
	},
	{
		name: "S2-2",
		packetFilter: "*-type2_2-*",
		source: "host3",
		destination: "host1",
		trees: [[["host3", "switch3", "switch1", "host1"]]]
	},
	{
		name: "S2-3",
		packetFilter: "*-type2_3-*",
		source: "host0",
		destination: "host3",
		trees: [[["host0", "switch0", "switch3", "host3"]]]
	},
	{
		name: "S2-4",
		packetFilter: "*-type2_4-*",
		source: "host2",
		destination: "host1",
		trees: [[["host2", "switch2", "switch1", "host1"]]]
	},
	{
		name: "S2-5",
		packetFilter: "*-type2_5-*",
		source: "host1",
		destination: "host0",
		trees: [[["host1", "switch1", "switch4", "switch0", "host0"]]]
	}]
	

