[General]
network = TSN_multipath
sim-time-limit = 100ms
*.macForwardingTableConfigurator.typename = ""
*.*.hasStreamRedundancy = true
*.*.bridging.streamRelay.typename = "StreamRelayLayer"
*.*.bridging.streamCoder.typename = "StreamCoderLayer"
*.streamRedundancyConfigurator.typename = "StreamRedundancyConfigurator"
*.host0.eth[0].bitrate = 1000Mbps
*.switch0.eth[0].bitrate = 1000Mbps
*.switch0.eth[1].bitrate = 1600Mbps
*.switch0.eth[2].bitrate = 2000Mbps
*.switch0.eth[3].bitrate = 2200Mbps
*.switch0.eth[4].bitrate = 1500Mbps
*.switch0.eth[5].bitrate = 2200Mbps
*.switch0.eth[6].bitrate = 2000Mbps
*.switch0.eth[7].bitrate = 2400Mbps
*.switch0.eth[8].bitrate = 1400Mbps
*.switch0.eth[9].bitrate = 1600Mbps
*.switch0.eth[10].bitrate = 2200Mbps
*.switch0.eth[11].bitrate = 1700Mbps
*.switch0.eth[12].bitrate = 1600Mbps
*.switch0.eth[13].bitrate = 1300Mbps
*.host1.eth[0].bitrate = 1000Mbps
*.switch1.eth[0].bitrate = 1000Mbps
*.switch1.eth[1].bitrate = 1600Mbps
*.switch1.eth[2].bitrate = 2300Mbps
*.switch1.eth[3].bitrate = 1900Mbps
*.switch1.eth[4].bitrate = 2100Mbps
*.switch1.eth[5].bitrate = 1200Mbps
*.switch1.eth[6].bitrate = 1800Mbps
*.switch1.eth[7].bitrate = 1900Mbps
*.switch1.eth[8].bitrate = 1200Mbps
*.switch1.eth[9].bitrate = 1400Mbps
*.host2.eth[0].bitrate = 1000Mbps
*.switch2.eth[0].bitrate = 1000Mbps
*.switch2.eth[1].bitrate = 2000Mbps
*.switch2.eth[2].bitrate = 1400Mbps
*.switch2.eth[3].bitrate = 1200Mbps
*.switch2.eth[4].bitrate = 1200Mbps
*.switch2.eth[5].bitrate = 1400Mbps
*.switch2.eth[6].bitrate = 1700Mbps
*.switch2.eth[7].bitrate = 2200Mbps
*.switch2.eth[8].bitrate = 1800Mbps
*.switch2.eth[9].bitrate = 1300Mbps
*.host3.eth[0].bitrate = 1000Mbps
*.switch3.eth[0].bitrate = 1000Mbps
*.switch3.eth[1].bitrate = 1200Mbps
*.switch3.eth[2].bitrate = 1800Mbps
*.switch3.eth[3].bitrate = 2200Mbps
*.switch3.eth[4].bitrate = 2200Mbps
*.switch3.eth[5].bitrate = 1800Mbps
*.switch3.eth[6].bitrate = 2200Mbps
*.switch3.eth[7].bitrate = 1200Mbps
*.host4.eth[0].bitrate = 1000Mbps
*.switch4.eth[0].bitrate = 1000Mbps
*.switch4.eth[1].bitrate = 2200Mbps
*.switch4.eth[2].bitrate = 1200Mbps
*.switch4.eth[3].bitrate = 1900Mbps
*.switch4.eth[4].bitrate = 1900Mbps
*.switch4.eth[5].bitrate = 2000Mbps
*.switch4.eth[6].bitrate = 1300Mbps
*.switch4.eth[7].bitrate = 1900Mbps
*.host5.eth[0].bitrate = 1000Mbps
*.switch5.eth[0].bitrate = 1000Mbps
*.switch5.eth[1].bitrate = 1500Mbps
*.switch5.eth[2].bitrate = 1800Mbps
*.switch5.eth[3].bitrate = 1900Mbps
*.switch5.eth[4].bitrate = 2400Mbps
*.switch5.eth[5].bitrate = 1300Mbps
*.switch5.eth[6].bitrate = 1200Mbps
*.switch5.eth[7].bitrate = 1700Mbps
*.switch5.eth[8].bitrate = 1900Mbps
*.switch5.eth[9].bitrate = 1800Mbps
*.switch5.eth[10].bitrate = 2300Mbps
*.switch5.eth[11].bitrate = 2000Mbps
*.host6.eth[0].bitrate = 1000Mbps
*.switch6.eth[0].bitrate = 1000Mbps
*.switch6.eth[1].bitrate = 2200Mbps
*.switch6.eth[2].bitrate = 2100Mbps
*.switch6.eth[3].bitrate = 1400Mbps
*.switch6.eth[4].bitrate = 1800Mbps
*.switch6.eth[5].bitrate = 1900Mbps
*.switch6.eth[6].bitrate = 1700Mbps
*.switch6.eth[7].bitrate = 1300Mbps
*.switch6.eth[8].bitrate = 2300Mbps
*.switch6.eth[9].bitrate = 1200Mbps
*.switch6.eth[10].bitrate = 1600Mbps
*.switch6.eth[11].bitrate = 1200Mbps
*.switch6.eth[12].bitrate = 2000Mbps
*.switch6.eth[13].bitrate = 1200Mbps
*.switch6.eth[14].bitrate = 2300Mbps
*.switch6.eth[15].bitrate = 2200Mbps
*.switch6.eth[16].bitrate = 1200Mbps
*.switch6.eth[17].bitrate = 2000Mbps
*.host7.eth[0].bitrate = 1000Mbps
*.switch7.eth[0].bitrate = 1000Mbps
*.switch7.eth[1].bitrate = 2300Mbps
*.switch7.eth[2].bitrate = 2200Mbps
*.switch7.eth[3].bitrate = 2400Mbps
*.switch7.eth[4].bitrate = 1300Mbps
*.switch7.eth[5].bitrate = 1900Mbps
*.switch7.eth[6].bitrate = 1200Mbps
*.switch7.eth[7].bitrate = 2000Mbps
*.switch7.eth[8].bitrate = 1800Mbps
*.switch7.eth[9].bitrate = 1500Mbps
*.switch7.eth[10].bitrate = 2000Mbps
*.switch7.eth[11].bitrate = 1400Mbps
*.switch7.eth[12].bitrate = 1400Mbps
*.switch7.eth[13].bitrate = 2100Mbps
*.switch7.eth[14].bitrate = 1900Mbps
*.host8.eth[0].bitrate = 1000Mbps
*.switch8.eth[0].bitrate = 1000Mbps
*.switch8.eth[1].bitrate = 1900Mbps
*.switch8.eth[2].bitrate = 2300Mbps
*.switch8.eth[3].bitrate = 2000Mbps
*.switch8.eth[4].bitrate = 1200Mbps
*.switch8.eth[5].bitrate = 1700Mbps
*.switch8.eth[6].bitrate = 1800Mbps
*.switch8.eth[7].bitrate = 2300Mbps
*.switch8.eth[8].bitrate = 1400Mbps
*.switch8.eth[9].bitrate = 2100Mbps
*.switch8.eth[10].bitrate = 2400Mbps
*.switch8.eth[11].bitrate = 2000Mbps
*.switch8.eth[12].bitrate = 1900Mbps
*.switch8.eth[13].bitrate = 1200Mbps
*.switch8.eth[14].bitrate = 2300Mbps
*.switch8.eth[15].bitrate = 1700Mbps
*.switch8.eth[16].bitrate = 2300Mbps
*.switch8.eth[17].bitrate = 2100Mbps
*.host9.eth[0].bitrate = 1000Mbps
*.switch9.eth[0].bitrate = 1000Mbps
*.switch9.eth[1].bitrate = 2000Mbps
*.switch9.eth[2].bitrate = 1300Mbps
*.switch9.eth[3].bitrate = 1200Mbps
*.switch9.eth[4].bitrate = 2100Mbps
*.switch9.eth[5].bitrate = 1600Mbps
*.switch9.eth[6].bitrate = 1800Mbps
*.switch9.eth[7].bitrate = 2200Mbps
*.switch9.eth[8].bitrate = 2000Mbps
*.switch9.eth[9].bitrate = 2200Mbps
*.switch9.eth[10].bitrate = 1400Mbps
*.switch9.eth[11].bitrate = 2300Mbps
*.switch9.eth[12].bitrate = 2300Mbps
*.switch9.eth[13].bitrate = 1600Mbps
*.switch9.eth[14].bitrate = 2000Mbps
*.switch9.eth[15].bitrate = 2400Mbps
*.switch9.eth[16].bitrate = 1300Mbps
*.switch9.eth[17].bitrate = 1400Mbps
*.switch9.eth[18].bitrate = 1900Mbps
*.switch9.eth[19].bitrate = 1400Mbps
*.host10.eth[0].bitrate = 1000Mbps
*.switch10.eth[0].bitrate = 1000Mbps
*.switch10.eth[1].bitrate = 1200Mbps
*.switch10.eth[2].bitrate = 2300Mbps
*.switch10.eth[3].bitrate = 2200Mbps
*.switch10.eth[4].bitrate = 1900Mbps
*.switch10.eth[5].bitrate = 1300Mbps
*.switch10.eth[6].bitrate = 2300Mbps
*.switch10.eth[7].bitrate = 1200Mbps
*.switch10.eth[8].bitrate = 1200Mbps
*.switch10.eth[9].bitrate = 1300Mbps
*.switch10.eth[10].bitrate = 2400Mbps
*.switch10.eth[11].bitrate = 1200Mbps
*.switch10.eth[12].bitrate = 1700Mbps
*.switch10.eth[13].bitrate = 2400Mbps
*.switch10.eth[14].bitrate = 1300Mbps
*.host11.eth[0].bitrate = 1000Mbps
*.switch11.eth[0].bitrate = 1000Mbps
*.switch11.eth[1].bitrate = 1600Mbps
*.switch11.eth[2].bitrate = 2400Mbps
*.switch11.eth[3].bitrate = 2300Mbps
*.switch11.eth[4].bitrate = 1700Mbps
*.switch11.eth[5].bitrate = 1900Mbps
*.switch11.eth[6].bitrate = 2100Mbps
*.switch11.eth[7].bitrate = 2300Mbps
*.switch11.eth[8].bitrate = 1400Mbps
*.switch11.eth[9].bitrate = 1700Mbps
*.switch11.eth[10].bitrate = 2400Mbps
*.switch11.eth[11].bitrate = 2300Mbps
*.switch11.eth[12].bitrate = 2000Mbps
*.switch11.eth[13].bitrate = 1300Mbps
*.switch11.eth[14].bitrate = 1700Mbps
*.switch11.eth[15].bitrate = 2200Mbps
*.host12.eth[0].bitrate = 1000Mbps
*.switch12.eth[0].bitrate = 1000Mbps
*.switch12.eth[1].bitrate = 2200Mbps
*.switch12.eth[2].bitrate = 1200Mbps
*.switch12.eth[3].bitrate = 1200Mbps
*.switch12.eth[4].bitrate = 1800Mbps
*.switch12.eth[5].bitrate = 1600Mbps
*.switch12.eth[6].bitrate = 2400Mbps
*.switch12.eth[7].bitrate = 2400Mbps
*.switch12.eth[8].bitrate = 1600Mbps
*.switch12.eth[9].bitrate = 1800Mbps
*.switch12.eth[10].bitrate = 2200Mbps
*.switch12.eth[11].bitrate = 1700Mbps
*.switch12.eth[12].bitrate = 2400Mbps
*.switch12.eth[13].bitrate = 1300Mbps
*.switch12.eth[14].bitrate = 1500Mbps
*.switch12.eth[15].bitrate = 1600Mbps
*.switch12.eth[16].bitrate = 1800Mbps
*.host13.eth[0].bitrate = 1000Mbps
*.switch13.eth[0].bitrate = 1000Mbps
*.switch13.eth[1].bitrate = 2400Mbps
*.switch13.eth[2].bitrate = 2000Mbps
*.switch13.eth[3].bitrate = 1500Mbps
*.switch13.eth[4].bitrate = 2000Mbps
*.switch13.eth[5].bitrate = 2000Mbps
*.switch13.eth[6].bitrate = 1200Mbps
*.switch13.eth[7].bitrate = 2300Mbps
*.switch13.eth[8].bitrate = 1500Mbps
*.switch13.eth[9].bitrate = 1300Mbps
*.switch13.eth[10].bitrate = 1200Mbps
*.switch13.eth[11].bitrate = 1300Mbps
*.switch13.eth[12].bitrate = 1200Mbps
*.switch13.eth[13].bitrate = 2000Mbps
*.switch13.eth[14].bitrate = 2000Mbps
*.switch13.eth[15].bitrate = 1900Mbps
*.switch13.eth[16].bitrate = 2300Mbps
*.switch13.eth[17].bitrate = 1900Mbps
*.switch13.eth[18].bitrate = 1300Mbps
*.switch13.eth[19].bitrate = 1700Mbps
*.switch13.eth[20].bitrate = 1800Mbps
*.switch13.eth[21].bitrate = 2400Mbps
*.switch13.eth[22].bitrate = 1200Mbps
*.host14.eth[0].bitrate = 1000Mbps
*.switch14.eth[0].bitrate = 1000Mbps
*.switch14.eth[1].bitrate = 1200Mbps
*.switch14.eth[2].bitrate = 2000Mbps
*.switch14.eth[3].bitrate = 1900Mbps
*.switch14.eth[4].bitrate = 2400Mbps
*.switch14.eth[5].bitrate = 2000Mbps
*.switch14.eth[6].bitrate = 1600Mbps
*.switch14.eth[7].bitrate = 2400Mbps
*.switch14.eth[8].bitrate = 1400Mbps
*.switch14.eth[9].bitrate = 2100Mbps
*.switch14.eth[10].bitrate = 1400Mbps
*.switch14.eth[11].bitrate = 2200Mbps
*.switch14.eth[12].bitrate = 1200Mbps
*.host0.numApps = 0
*.host1.numApps = 3
*.host1.app[0].typename = "UdpSourceApp"
*.host1.app[0].io.destAddress = "host7"
*.host1.app[0].source.packetNameFormat = "%M-%m-%c"
*.host1.app[0].source.displayStringTextFormat = "sent %p pk (%l)"
*.host1.app[0].source.packetLength = 17B
*.host1.app[0].source.productionInterval = 1ms
*.host1.app[0].display-name = "type1_2"
*.host1.app[0].io.destPort = 1000
*.host1.app[1].typename = "UdpSinkApp"
*.host1.app[1].io.localPort = 1000
*.host1.app[2].typename = "UdpSinkApp"
*.host1.app[2].io.localPort = 1001
*.host2.numApps = 10
*.host2.app[0].typename = "UdpSourceApp"
*.host2.app[0].io.destAddress = "host8"
*.host2.app[0].source.packetNameFormat = "%M-%m-%c"
*.host2.app[0].source.displayStringTextFormat = "sent %p pk (%l)"
*.host2.app[0].source.packetLength = 19B
*.host2.app[0].source.productionInterval = 1ms
*.host2.app[0].display-name = "type1_0"
*.host2.app[0].io.destPort = 1000
*.host2.app[1].typename = "UdpSourceApp"
*.host2.app[1].io.destAddress = "host4"
*.host2.app[1].source.packetNameFormat = "%M-%m-%c"
*.host2.app[1].source.displayStringTextFormat = "sent %p pk (%l)"
*.host2.app[1].source.packetLength = 15B
*.host2.app[1].source.productionInterval = 1ms
*.host2.app[1].display-name = "type1_6"
*.host2.app[1].io.destPort = 1000
*.host2.app[2].typename = "UdpBasicApp"
*.host2.app[2].destAddresses = "host5"
*.host2.app[2].source.packetNameFormat = "%M-%m-%c"
*.host2.app[2].source.displayStringTextFormat = "sent %p pk (%l)"
*.host2.app[2].messageLength = 24B
*.host2.app[2].sendInterval = 1ms
*.host2.app[2].startTime = 6ms
*.host2.app[2].stopTime = 14ms
*.host2.app[2].display-name = "type2_1"
*.host2.app[2].destPort = 1000
*.host2.app[3].typename = "UdpBasicApp"
*.host2.app[3].destAddresses = "host5"
*.host2.app[3].source.packetNameFormat = "%M-%m-%c"
*.host2.app[3].source.displayStringTextFormat = "sent %p pk (%l)"
*.host2.app[3].messageLength = 24B
*.host2.app[3].sendInterval = 1ms
*.host2.app[3].startTime = 18ms
*.host2.app[3].stopTime = 20ms
*.host2.app[3].display-name = "type2_1"
*.host2.app[3].destPort = 1000
*.host2.app[4].typename = "UdpBasicApp"
*.host2.app[4].destAddresses = "host5"
*.host2.app[4].source.packetNameFormat = "%M-%m-%c"
*.host2.app[4].source.displayStringTextFormat = "sent %p pk (%l)"
*.host2.app[4].messageLength = 24B
*.host2.app[4].sendInterval = 1ms
*.host2.app[4].startTime = 26ms
*.host2.app[4].stopTime = 42ms
*.host2.app[4].display-name = "type2_1"
*.host2.app[4].destPort = 1000
*.host2.app[5].typename = "UdpBasicApp"
*.host2.app[5].destAddresses = "host5"
*.host2.app[5].source.packetNameFormat = "%M-%m-%c"
*.host2.app[5].source.displayStringTextFormat = "sent %p pk (%l)"
*.host2.app[5].messageLength = 24B
*.host2.app[5].sendInterval = 1ms
*.host2.app[5].startTime = 48ms
*.host2.app[5].stopTime = 53ms
*.host2.app[5].display-name = "type2_1"
*.host2.app[5].destPort = 1000
*.host2.app[6].typename = "UdpBasicApp"
*.host2.app[6].destAddresses = "host5"
*.host2.app[6].source.packetNameFormat = "%M-%m-%c"
*.host2.app[6].source.displayStringTextFormat = "sent %p pk (%l)"
*.host2.app[6].messageLength = 24B
*.host2.app[6].sendInterval = 1ms
*.host2.app[6].startTime = 60ms
*.host2.app[6].stopTime = 63ms
*.host2.app[6].display-name = "type2_1"
*.host2.app[6].destPort = 1000
*.host2.app[7].typename = "UdpBasicApp"
*.host2.app[7].destAddresses = "host5"
*.host2.app[7].source.packetNameFormat = "%M-%m-%c"
*.host2.app[7].source.displayStringTextFormat = "sent %p pk (%l)"
*.host2.app[7].messageLength = 24B
*.host2.app[7].sendInterval = 1ms
*.host2.app[7].startTime = 76ms
*.host2.app[7].stopTime = 86ms
*.host2.app[7].display-name = "type2_1"
*.host2.app[7].destPort = 1000
*.host2.app[8].typename = "UdpBasicApp"
*.host2.app[8].destAddresses = "host5"
*.host2.app[8].source.packetNameFormat = "%M-%m-%c"
*.host2.app[8].source.displayStringTextFormat = "sent %p pk (%l)"
*.host2.app[8].messageLength = 24B
*.host2.app[8].sendInterval = 1ms
*.host2.app[8].startTime = 88ms
*.host2.app[8].stopTime = 96ms
*.host2.app[8].display-name = "type2_1"
*.host2.app[8].destPort = 1000
*.host2.app[9].typename = "UdpBasicApp"
*.host2.app[9].destAddresses = "host5"
*.host2.app[9].source.packetNameFormat = "%M-%m-%c"
*.host2.app[9].source.displayStringTextFormat = "sent %p pk (%l)"
*.host2.app[9].messageLength = 24B
*.host2.app[9].sendInterval = 1ms
*.host2.app[9].startTime = 97ms
*.host2.app[9].stopTime = 100ms
*.host2.app[9].display-name = "type2_1"
*.host2.app[9].destPort = 1000
*.host3.numApps = 11
*.host3.app[0].typename = "UdpSourceApp"
*.host3.app[0].io.destAddress = "host1"
*.host3.app[0].source.packetNameFormat = "%M-%m-%c"
*.host3.app[0].source.displayStringTextFormat = "sent %p pk (%l)"
*.host3.app[0].source.packetLength = 12B
*.host3.app[0].source.productionInterval = 1ms
*.host3.app[0].display-name = "type1_4"
*.host3.app[0].io.destPort = 1001
*.host3.app[1].typename = "UdpSourceApp"
*.host3.app[1].io.destAddress = "host13"
*.host3.app[1].source.packetNameFormat = "%M-%m-%c"
*.host3.app[1].source.displayStringTextFormat = "sent %p pk (%l)"
*.host3.app[1].source.packetLength = 15B
*.host3.app[1].source.productionInterval = 1ms
*.host3.app[1].display-name = "type1_5"
*.host3.app[1].io.destPort = 1001
*.host3.app[2].typename = "UdpBasicApp"
*.host3.app[2].destAddresses = "host9"
*.host3.app[2].source.packetNameFormat = "%M-%m-%c"
*.host3.app[2].source.displayStringTextFormat = "sent %p pk (%l)"
*.host3.app[2].messageLength = 24B
*.host3.app[2].sendInterval = 1ms
*.host3.app[2].startTime = 9ms
*.host3.app[2].stopTime = 11ms
*.host3.app[2].display-name = "type2_2"
*.host3.app[2].destPort = 1000
*.host3.app[3].typename = "UdpBasicApp"
*.host3.app[3].destAddresses = "host9"
*.host3.app[3].source.packetNameFormat = "%M-%m-%c"
*.host3.app[3].source.displayStringTextFormat = "sent %p pk (%l)"
*.host3.app[3].messageLength = 24B
*.host3.app[3].sendInterval = 1ms
*.host3.app[3].startTime = 19ms
*.host3.app[3].stopTime = 22ms
*.host3.app[3].display-name = "type2_2"
*.host3.app[3].destPort = 1000
*.host3.app[4].typename = "UdpBasicApp"
*.host3.app[4].destAddresses = "host9"
*.host3.app[4].source.packetNameFormat = "%M-%m-%c"
*.host3.app[4].source.displayStringTextFormat = "sent %p pk (%l)"
*.host3.app[4].messageLength = 24B
*.host3.app[4].sendInterval = 1ms
*.host3.app[4].startTime = 24ms
*.host3.app[4].stopTime = 31ms
*.host3.app[4].display-name = "type2_2"
*.host3.app[4].destPort = 1000
*.host3.app[5].typename = "UdpBasicApp"
*.host3.app[5].destAddresses = "host9"
*.host3.app[5].source.packetNameFormat = "%M-%m-%c"
*.host3.app[5].source.displayStringTextFormat = "sent %p pk (%l)"
*.host3.app[5].messageLength = 24B
*.host3.app[5].sendInterval = 1ms
*.host3.app[5].startTime = 35ms
*.host3.app[5].stopTime = 38ms
*.host3.app[5].display-name = "type2_2"
*.host3.app[5].destPort = 1000
*.host3.app[6].typename = "UdpBasicApp"
*.host3.app[6].destAddresses = "host9"
*.host3.app[6].source.packetNameFormat = "%M-%m-%c"
*.host3.app[6].source.displayStringTextFormat = "sent %p pk (%l)"
*.host3.app[6].messageLength = 24B
*.host3.app[6].sendInterval = 1ms
*.host3.app[6].startTime = 59ms
*.host3.app[6].stopTime = 64ms
*.host3.app[6].display-name = "type2_2"
*.host3.app[6].destPort = 1000
*.host3.app[7].typename = "UdpBasicApp"
*.host3.app[7].destAddresses = "host9"
*.host3.app[7].source.packetNameFormat = "%M-%m-%c"
*.host3.app[7].source.displayStringTextFormat = "sent %p pk (%l)"
*.host3.app[7].messageLength = 24B
*.host3.app[7].sendInterval = 1ms
*.host3.app[7].startTime = 66ms
*.host3.app[7].stopTime = 68ms
*.host3.app[7].display-name = "type2_2"
*.host3.app[7].destPort = 1000
*.host3.app[8].typename = "UdpBasicApp"
*.host3.app[8].destAddresses = "host9"
*.host3.app[8].source.packetNameFormat = "%M-%m-%c"
*.host3.app[8].source.displayStringTextFormat = "sent %p pk (%l)"
*.host3.app[8].messageLength = 24B
*.host3.app[8].sendInterval = 1ms
*.host3.app[8].startTime = 73ms
*.host3.app[8].stopTime = 80ms
*.host3.app[8].display-name = "type2_2"
*.host3.app[8].destPort = 1000
*.host3.app[9].typename = "UdpBasicApp"
*.host3.app[9].destAddresses = "host9"
*.host3.app[9].source.packetNameFormat = "%M-%m-%c"
*.host3.app[9].source.displayStringTextFormat = "sent %p pk (%l)"
*.host3.app[9].messageLength = 24B
*.host3.app[9].sendInterval = 1ms
*.host3.app[9].startTime = 87ms
*.host3.app[9].stopTime = 88ms
*.host3.app[9].display-name = "type2_2"
*.host3.app[9].destPort = 1000
*.host3.app[10].typename = "UdpBasicApp"
*.host3.app[10].destAddresses = "host9"
*.host3.app[10].source.packetNameFormat = "%M-%m-%c"
*.host3.app[10].source.displayStringTextFormat = "sent %p pk (%l)"
*.host3.app[10].messageLength = 24B
*.host3.app[10].sendInterval = 1ms
*.host3.app[10].startTime = 98ms
*.host3.app[10].stopTime = 100ms
*.host3.app[10].display-name = "type2_2"
*.host3.app[10].destPort = 1000
*.host4.numApps = 1
*.host4.app[0].typename = "UdpSinkApp"
*.host4.app[0].io.localPort = 1000
*.host5.numApps = 2
*.host5.app[0].typename = "UdpSinkApp"
*.host5.app[0].io.localPort = 1000
*.host5.app[1].typename = "UdpSinkApp"
*.host5.app[1].io.localPort = 1001
*.host6.numApps = 0
*.host7.numApps = 2
*.host7.app[0].typename = "UdpSinkApp"
*.host7.app[0].io.localPort = 1000
*.host7.app[1].typename = "UdpSinkApp"
*.host7.app[1].io.localPort = 1001
*.host8.numApps = 1
*.host8.app[0].typename = "UdpSinkApp"
*.host8.app[0].io.localPort = 1000
*.host9.numApps = 2
*.host9.app[0].typename = "UdpSinkApp"
*.host9.app[0].io.localPort = 1000
*.host9.app[1].typename = "UdpSinkApp"
*.host9.app[1].io.localPort = 1001
*.host10.numApps = 2
*.host10.app[0].typename = "UdpSinkApp"
*.host10.app[0].io.localPort = 1000
*.host10.app[1].typename = "UdpSinkApp"
*.host10.app[1].io.localPort = 1001
*.host11.numApps = 12
*.host11.app[0].typename = "UdpBasicApp"
*.host11.app[0].destAddresses = "host10"
*.host11.app[0].source.packetNameFormat = "%M-%m-%c"
*.host11.app[0].source.displayStringTextFormat = "sent %p pk (%l)"
*.host11.app[0].messageLength = 20B
*.host11.app[0].sendInterval = 1ms
*.host11.app[0].startTime = 4ms
*.host11.app[0].stopTime = 24ms
*.host11.app[0].display-name = "type2_0"
*.host11.app[0].destPort = 1000
*.host11.app[1].typename = "UdpBasicApp"
*.host11.app[1].destAddresses = "host10"
*.host11.app[1].source.packetNameFormat = "%M-%m-%c"
*.host11.app[1].source.displayStringTextFormat = "sent %p pk (%l)"
*.host11.app[1].messageLength = 20B
*.host11.app[1].sendInterval = 1ms
*.host11.app[1].startTime = 26ms
*.host11.app[1].stopTime = 27ms
*.host11.app[1].display-name = "type2_0"
*.host11.app[1].destPort = 1000
*.host11.app[2].typename = "UdpBasicApp"
*.host11.app[2].destAddresses = "host10"
*.host11.app[2].source.packetNameFormat = "%M-%m-%c"
*.host11.app[2].source.displayStringTextFormat = "sent %p pk (%l)"
*.host11.app[2].messageLength = 20B
*.host11.app[2].sendInterval = 1ms
*.host11.app[2].startTime = 28ms
*.host11.app[2].stopTime = 33ms
*.host11.app[2].display-name = "type2_0"
*.host11.app[2].destPort = 1000
*.host11.app[3].typename = "UdpBasicApp"
*.host11.app[3].destAddresses = "host10"
*.host11.app[3].source.packetNameFormat = "%M-%m-%c"
*.host11.app[3].source.displayStringTextFormat = "sent %p pk (%l)"
*.host11.app[3].messageLength = 20B
*.host11.app[3].sendInterval = 1ms
*.host11.app[3].startTime = 53ms
*.host11.app[3].stopTime = 75ms
*.host11.app[3].display-name = "type2_0"
*.host11.app[3].destPort = 1000
*.host11.app[4].typename = "UdpBasicApp"
*.host11.app[4].destAddresses = "host10"
*.host11.app[4].source.packetNameFormat = "%M-%m-%c"
*.host11.app[4].source.displayStringTextFormat = "sent %p pk (%l)"
*.host11.app[4].messageLength = 20B
*.host11.app[4].sendInterval = 1ms
*.host11.app[4].startTime = 76ms
*.host11.app[4].stopTime = 82ms
*.host11.app[4].display-name = "type2_0"
*.host11.app[4].destPort = 1000
*.host11.app[5].typename = "UdpBasicApp"
*.host11.app[5].destAddresses = "host10"
*.host11.app[5].source.packetNameFormat = "%M-%m-%c"
*.host11.app[5].source.displayStringTextFormat = "sent %p pk (%l)"
*.host11.app[5].messageLength = 20B
*.host11.app[5].sendInterval = 1ms
*.host11.app[5].startTime = 89ms
*.host11.app[5].stopTime = 93ms
*.host11.app[5].display-name = "type2_0"
*.host11.app[5].destPort = 1000
*.host11.app[6].typename = "UdpBasicApp"
*.host11.app[6].destAddresses = "host5"
*.host11.app[6].source.packetNameFormat = "%M-%m-%c"
*.host11.app[6].source.displayStringTextFormat = "sent %p pk (%l)"
*.host11.app[6].messageLength = 15B
*.host11.app[6].sendInterval = 1ms
*.host11.app[6].startTime = 0ms
*.host11.app[6].stopTime = 5ms
*.host11.app[6].display-name = "type2_5"
*.host11.app[6].destPort = 1001
*.host11.app[7].typename = "UdpBasicApp"
*.host11.app[7].destAddresses = "host5"
*.host11.app[7].source.packetNameFormat = "%M-%m-%c"
*.host11.app[7].source.displayStringTextFormat = "sent %p pk (%l)"
*.host11.app[7].messageLength = 15B
*.host11.app[7].sendInterval = 1ms
*.host11.app[7].startTime = 22ms
*.host11.app[7].stopTime = 36ms
*.host11.app[7].display-name = "type2_5"
*.host11.app[7].destPort = 1001
*.host11.app[8].typename = "UdpBasicApp"
*.host11.app[8].destAddresses = "host5"
*.host11.app[8].source.packetNameFormat = "%M-%m-%c"
*.host11.app[8].source.displayStringTextFormat = "sent %p pk (%l)"
*.host11.app[8].messageLength = 15B
*.host11.app[8].sendInterval = 1ms
*.host11.app[8].startTime = 45ms
*.host11.app[8].stopTime = 55ms
*.host11.app[8].display-name = "type2_5"
*.host11.app[8].destPort = 1001
*.host11.app[9].typename = "UdpBasicApp"
*.host11.app[9].destAddresses = "host5"
*.host11.app[9].source.packetNameFormat = "%M-%m-%c"
*.host11.app[9].source.displayStringTextFormat = "sent %p pk (%l)"
*.host11.app[9].messageLength = 15B
*.host11.app[9].sendInterval = 1ms
*.host11.app[9].startTime = 59ms
*.host11.app[9].stopTime = 65ms
*.host11.app[9].display-name = "type2_5"
*.host11.app[9].destPort = 1001
*.host11.app[10].typename = "UdpBasicApp"
*.host11.app[10].destAddresses = "host5"
*.host11.app[10].source.packetNameFormat = "%M-%m-%c"
*.host11.app[10].source.displayStringTextFormat = "sent %p pk (%l)"
*.host11.app[10].messageLength = 15B
*.host11.app[10].sendInterval = 1ms
*.host11.app[10].startTime = 69ms
*.host11.app[10].stopTime = 83ms
*.host11.app[10].display-name = "type2_5"
*.host11.app[10].destPort = 1001
*.host11.app[11].typename = "UdpBasicApp"
*.host11.app[11].destAddresses = "host5"
*.host11.app[11].source.packetNameFormat = "%M-%m-%c"
*.host11.app[11].source.displayStringTextFormat = "sent %p pk (%l)"
*.host11.app[11].messageLength = 15B
*.host11.app[11].sendInterval = 1ms
*.host11.app[11].startTime = 88ms
*.host11.app[11].stopTime = 97ms
*.host11.app[11].display-name = "type2_5"
*.host11.app[11].destPort = 1001
*.host12.numApps = 14
*.host12.app[0].typename = "UdpSourceApp"
*.host12.app[0].io.destAddress = "host1"
*.host12.app[0].source.packetNameFormat = "%M-%m-%c"
*.host12.app[0].source.displayStringTextFormat = "sent %p pk (%l)"
*.host12.app[0].source.packetLength = 12B
*.host12.app[0].source.productionInterval = 1ms
*.host12.app[0].display-name = "type1_3"
*.host12.app[0].io.destPort = 1000
*.host12.app[1].typename = "UdpBasicApp"
*.host12.app[1].destAddresses = "host10"
*.host12.app[1].source.packetNameFormat = "%M-%m-%c"
*.host12.app[1].source.displayStringTextFormat = "sent %p pk (%l)"
*.host12.app[1].messageLength = 24B
*.host12.app[1].sendInterval = 1ms
*.host12.app[1].startTime = 4ms
*.host12.app[1].stopTime = 15ms
*.host12.app[1].display-name = "type2_3"
*.host12.app[1].destPort = 1001
*.host12.app[2].typename = "UdpBasicApp"
*.host12.app[2].destAddresses = "host10"
*.host12.app[2].source.packetNameFormat = "%M-%m-%c"
*.host12.app[2].source.displayStringTextFormat = "sent %p pk (%l)"
*.host12.app[2].messageLength = 24B
*.host12.app[2].sendInterval = 1ms
*.host12.app[2].startTime = 18ms
*.host12.app[2].stopTime = 20ms
*.host12.app[2].display-name = "type2_3"
*.host12.app[2].destPort = 1001
*.host12.app[3].typename = "UdpBasicApp"
*.host12.app[3].destAddresses = "host10"
*.host12.app[3].source.packetNameFormat = "%M-%m-%c"
*.host12.app[3].source.displayStringTextFormat = "sent %p pk (%l)"
*.host12.app[3].messageLength = 24B
*.host12.app[3].sendInterval = 1ms
*.host12.app[3].startTime = 29ms
*.host12.app[3].stopTime = 32ms
*.host12.app[3].display-name = "type2_3"
*.host12.app[3].destPort = 1001
*.host12.app[4].typename = "UdpBasicApp"
*.host12.app[4].destAddresses = "host10"
*.host12.app[4].source.packetNameFormat = "%M-%m-%c"
*.host12.app[4].source.displayStringTextFormat = "sent %p pk (%l)"
*.host12.app[4].messageLength = 24B
*.host12.app[4].sendInterval = 1ms
*.host12.app[4].startTime = 44ms
*.host12.app[4].stopTime = 73ms
*.host12.app[4].display-name = "type2_3"
*.host12.app[4].destPort = 1001
*.host12.app[5].typename = "UdpBasicApp"
*.host12.app[5].destAddresses = "host10"
*.host12.app[5].source.packetNameFormat = "%M-%m-%c"
*.host12.app[5].source.displayStringTextFormat = "sent %p pk (%l)"
*.host12.app[5].messageLength = 24B
*.host12.app[5].sendInterval = 1ms
*.host12.app[5].startTime = 77ms
*.host12.app[5].stopTime = 79ms
*.host12.app[5].display-name = "type2_3"
*.host12.app[5].destPort = 1001
*.host12.app[6].typename = "UdpBasicApp"
*.host12.app[6].destAddresses = "host10"
*.host12.app[6].source.packetNameFormat = "%M-%m-%c"
*.host12.app[6].source.displayStringTextFormat = "sent %p pk (%l)"
*.host12.app[6].messageLength = 24B
*.host12.app[6].sendInterval = 1ms
*.host12.app[6].startTime = 80ms
*.host12.app[6].stopTime = 86ms
*.host12.app[6].display-name = "type2_3"
*.host12.app[6].destPort = 1001
*.host12.app[7].typename = "UdpBasicApp"
*.host12.app[7].destAddresses = "host10"
*.host12.app[7].source.packetNameFormat = "%M-%m-%c"
*.host12.app[7].source.displayStringTextFormat = "sent %p pk (%l)"
*.host12.app[7].messageLength = 24B
*.host12.app[7].sendInterval = 1ms
*.host12.app[7].startTime = 89ms
*.host12.app[7].stopTime = 99ms
*.host12.app[7].display-name = "type2_3"
*.host12.app[7].destPort = 1001
*.host12.app[8].typename = "UdpBasicApp"
*.host12.app[8].destAddresses = "host9"
*.host12.app[8].source.packetNameFormat = "%M-%m-%c"
*.host12.app[8].source.displayStringTextFormat = "sent %p pk (%l)"
*.host12.app[8].messageLength = 14B
*.host12.app[8].sendInterval = 1ms
*.host12.app[8].startTime = 4ms
*.host12.app[8].stopTime = 6ms
*.host12.app[8].display-name = "type2_4"
*.host12.app[8].destPort = 1001
*.host12.app[9].typename = "UdpBasicApp"
*.host12.app[9].destAddresses = "host9"
*.host12.app[9].source.packetNameFormat = "%M-%m-%c"
*.host12.app[9].source.displayStringTextFormat = "sent %p pk (%l)"
*.host12.app[9].messageLength = 14B
*.host12.app[9].sendInterval = 1ms
*.host12.app[9].startTime = 11ms
*.host12.app[9].stopTime = 24ms
*.host12.app[9].display-name = "type2_4"
*.host12.app[9].destPort = 1001
*.host12.app[10].typename = "UdpBasicApp"
*.host12.app[10].destAddresses = "host9"
*.host12.app[10].source.packetNameFormat = "%M-%m-%c"
*.host12.app[10].source.displayStringTextFormat = "sent %p pk (%l)"
*.host12.app[10].messageLength = 14B
*.host12.app[10].sendInterval = 1ms
*.host12.app[10].startTime = 33ms
*.host12.app[10].stopTime = 55ms
*.host12.app[10].display-name = "type2_4"
*.host12.app[10].destPort = 1001
*.host12.app[11].typename = "UdpBasicApp"
*.host12.app[11].destAddresses = "host9"
*.host12.app[11].source.packetNameFormat = "%M-%m-%c"
*.host12.app[11].source.displayStringTextFormat = "sent %p pk (%l)"
*.host12.app[11].messageLength = 14B
*.host12.app[11].sendInterval = 1ms
*.host12.app[11].startTime = 64ms
*.host12.app[11].stopTime = 70ms
*.host12.app[11].display-name = "type2_4"
*.host12.app[11].destPort = 1001
*.host12.app[12].typename = "UdpBasicApp"
*.host12.app[12].destAddresses = "host9"
*.host12.app[12].source.packetNameFormat = "%M-%m-%c"
*.host12.app[12].source.displayStringTextFormat = "sent %p pk (%l)"
*.host12.app[12].messageLength = 14B
*.host12.app[12].sendInterval = 1ms
*.host12.app[12].startTime = 79ms
*.host12.app[12].stopTime = 87ms
*.host12.app[12].display-name = "type2_4"
*.host12.app[12].destPort = 1001
*.host12.app[13].typename = "UdpBasicApp"
*.host12.app[13].destAddresses = "host9"
*.host12.app[13].source.packetNameFormat = "%M-%m-%c"
*.host12.app[13].source.displayStringTextFormat = "sent %p pk (%l)"
*.host12.app[13].messageLength = 14B
*.host12.app[13].sendInterval = 1ms
*.host12.app[13].startTime = 96ms
*.host12.app[13].stopTime = 100ms
*.host12.app[13].display-name = "type2_4"
*.host12.app[13].destPort = 1001
*.host13.numApps = 2
*.host13.app[0].typename = "UdpSinkApp"
*.host13.app[0].io.localPort = 1000
*.host13.app[1].typename = "UdpSinkApp"
*.host13.app[1].io.localPort = 1001
*.host14.numApps = 11
*.host14.app[0].typename = "UdpSourceApp"
*.host14.app[0].io.destAddress = "host13"
*.host14.app[0].source.packetNameFormat = "%M-%m-%c"
*.host14.app[0].source.displayStringTextFormat = "sent %p pk (%l)"
*.host14.app[0].source.packetLength = 15B
*.host14.app[0].source.productionInterval = 1ms
*.host14.app[0].display-name = "type1_1"
*.host14.app[0].io.destPort = 1000
*.host14.app[1].typename = "UdpBasicApp"
*.host14.app[1].destAddresses = "host7"
*.host14.app[1].source.packetNameFormat = "%M-%m-%c"