[General]
network = TSN_multipath
sim-time-limit = 10ms
*.macForwardingTableConfigurator.typename = ""
*.*.hasStreamRedundancy = true
*.*.bridging.streamRelay.typename = "StreamRelayLayer"
*.*.bridging.streamCoder.typename = "StreamCoderLayer"
*.streamRedundancyConfigurator.typename = "StreamRedundancyConfigurator"
*.host0.eth[0].bitrate = 1000Mbps
*.switch0.eth[0].bitrate = 1000Mbps
*.switch0.eth[1].bitrate = 2100Mbps
*.switch0.eth[2].bitrate = 2200Mbps
*.switch0.eth[3].bitrate = 2300Mbps
*.switch0.eth[4].bitrate = 1900Mbps
*.switch0.eth[5].bitrate = 1600Mbps
*.switch0.eth[6].bitrate = 1400Mbps
*.switch0.eth[7].bitrate = 1300Mbps
*.switch0.eth[8].bitrate = 2200Mbps
*.switch0.eth[9].bitrate = 1400Mbps
*.host1.eth[0].bitrate = 1000Mbps
*.switch1.eth[0].bitrate = 1000Mbps
*.switch1.eth[1].bitrate = 1700Mbps
*.switch1.eth[2].bitrate = 1500Mbps
*.switch1.eth[3].bitrate = 1300Mbps
*.switch1.eth[4].bitrate = 1700Mbps
*.switch1.eth[5].bitrate = 2000Mbps
*.switch1.eth[6].bitrate = 1400Mbps
*.switch1.eth[7].bitrate = 1600Mbps
*.switch1.eth[8].bitrate = 2400Mbps
*.switch1.eth[9].bitrate = 1600Mbps
*.switch1.eth[10].bitrate = 1300Mbps
*.switch1.eth[11].bitrate = 1400Mbps
*.host2.eth[0].bitrate = 1000Mbps
*.switch2.eth[0].bitrate = 1000Mbps
*.switch2.eth[1].bitrate = 2200Mbps
*.switch2.eth[2].bitrate = 1300Mbps
*.switch2.eth[3].bitrate = 1300Mbps
*.switch2.eth[4].bitrate = 1400Mbps
*.switch2.eth[5].bitrate = 2300Mbps
*.switch2.eth[6].bitrate = 1500Mbps
*.switch2.eth[7].bitrate = 2000Mbps
*.switch2.eth[8].bitrate = 1200Mbps
*.switch2.eth[9].bitrate = 2300Mbps
*.switch2.eth[10].bitrate = 1700Mbps
*.switch2.eth[11].bitrate = 1200Mbps
*.switch2.eth[12].bitrate = 1900Mbps
*.switch2.eth[13].bitrate = 1200Mbps
*.switch2.eth[14].bitrate = 2200Mbps
*.switch2.eth[15].bitrate = 1700Mbps
*.host3.eth[0].bitrate = 1000Mbps
*.switch3.eth[0].bitrate = 1000Mbps
*.switch3.eth[1].bitrate = 1700Mbps
*.switch3.eth[2].bitrate = 2300Mbps
*.switch3.eth[3].bitrate = 1700Mbps
*.switch3.eth[4].bitrate = 1200Mbps
*.switch3.eth[5].bitrate = 1200Mbps
*.switch3.eth[6].bitrate = 1800Mbps
*.switch3.eth[7].bitrate = 2200Mbps
*.switch3.eth[8].bitrate = 1900Mbps
*.switch3.eth[9].bitrate = 1900Mbps
*.switch3.eth[10].bitrate = 2200Mbps
*.switch3.eth[11].bitrate = 1400Mbps
*.switch3.eth[12].bitrate = 1200Mbps
*.switch3.eth[13].bitrate = 1500Mbps
*.switch3.eth[14].bitrate = 1700Mbps
*.switch3.eth[15].bitrate = 1500Mbps
*.switch3.eth[16].bitrate = 1500Mbps
*.switch3.eth[17].bitrate = 2400Mbps
*.switch3.eth[18].bitrate = 2200Mbps
*.host4.eth[0].bitrate = 1000Mbps
*.switch4.eth[0].bitrate = 1000Mbps
*.switch4.eth[1].bitrate = 2100Mbps
*.switch4.eth[2].bitrate = 1200Mbps
*.switch4.eth[3].bitrate = 1900Mbps
*.switch4.eth[4].bitrate = 2000Mbps
*.switch4.eth[5].bitrate = 2300Mbps
*.switch4.eth[6].bitrate = 1500Mbps
*.switch4.eth[7].bitrate = 1600Mbps
*.switch4.eth[8].bitrate = 1700Mbps
*.switch4.eth[9].bitrate = 2400Mbps
*.switch4.eth[10].bitrate = 1700Mbps
*.switch4.eth[11].bitrate = 1800Mbps
*.switch4.eth[12].bitrate = 1500Mbps
*.switch4.eth[13].bitrate = 2400Mbps
*.switch4.eth[14].bitrate = 1900Mbps
*.switch4.eth[15].bitrate = 2000Mbps
*.switch4.eth[16].bitrate = 1700Mbps
*.switch4.eth[17].bitrate = 1400Mbps
*.switch4.eth[18].bitrate = 1400Mbps
*.switch4.eth[19].bitrate = 1200Mbps
*.host5.eth[0].bitrate = 1000Mbps
*.switch5.eth[0].bitrate = 1000Mbps
*.switch5.eth[1].bitrate = 1600Mbps
*.switch5.eth[2].bitrate = 1400Mbps
*.switch5.eth[3].bitrate = 1500Mbps
*.switch5.eth[4].bitrate = 1900Mbps
*.switch5.eth[5].bitrate = 1500Mbps
*.switch5.eth[6].bitrate = 1300Mbps
*.switch5.eth[7].bitrate = 2000Mbps
*.switch5.eth[8].bitrate = 2000Mbps
*.switch5.eth[9].bitrate = 1300Mbps
*.switch5.eth[10].bitrate = 1700Mbps
*.switch5.eth[11].bitrate = 2200Mbps
*.host6.eth[0].bitrate = 1000Mbps
*.switch6.eth[0].bitrate = 1000Mbps
*.switch6.eth[1].bitrate = 1300Mbps
*.switch6.eth[2].bitrate = 1800Mbps
*.switch6.eth[3].bitrate = 1700Mbps
*.switch6.eth[4].bitrate = 1900Mbps
*.switch6.eth[5].bitrate = 1700Mbps
*.switch6.eth[6].bitrate = 1400Mbps
*.switch6.eth[7].bitrate = 2400Mbps
*.switch6.eth[8].bitrate = 2000Mbps
*.switch6.eth[9].bitrate = 2200Mbps
*.switch6.eth[10].bitrate = 1400Mbps
*.switch6.eth[11].bitrate = 2300Mbps
*.switch6.eth[12].bitrate = 1800Mbps
*.host7.eth[0].bitrate = 1000Mbps
*.switch7.eth[0].bitrate = 1000Mbps
*.switch7.eth[1].bitrate = 1400Mbps
*.switch7.eth[2].bitrate = 2200Mbps
*.switch7.eth[3].bitrate = 1500Mbps
*.switch7.eth[4].bitrate = 1600Mbps
*.switch7.eth[5].bitrate = 1600Mbps
*.switch7.eth[6].bitrate = 1700Mbps
*.switch7.eth[7].bitrate = 2400Mbps
*.switch7.eth[8].bitrate = 1700Mbps
*.switch7.eth[9].bitrate = 1300Mbps
*.switch7.eth[10].bitrate = 1500Mbps
*.switch7.eth[11].bitrate = 1400Mbps
*.switch7.eth[12].bitrate = 1600Mbps
*.switch7.eth[13].bitrate = 1800Mbps
*.switch7.eth[14].bitrate = 2000Mbps
*.switch7.eth[15].bitrate = 1300Mbps
*.switch7.eth[16].bitrate = 2200Mbps
*.host8.eth[0].bitrate = 1000Mbps
*.switch8.eth[0].bitrate = 1000Mbps
*.switch8.eth[1].bitrate = 1900Mbps
*.switch8.eth[2].bitrate = 2400Mbps
*.switch8.eth[3].bitrate = 1500Mbps
*.switch8.eth[4].bitrate = 2400Mbps
*.switch8.eth[5].bitrate = 1200Mbps
*.switch8.eth[6].bitrate = 2000Mbps
*.switch8.eth[7].bitrate = 2000Mbps
*.switch8.eth[8].bitrate = 1300Mbps
*.host9.eth[0].bitrate = 1000Mbps
*.switch9.eth[0].bitrate = 1000Mbps
*.switch9.eth[1].bitrate = 1900Mbps
*.switch9.eth[2].bitrate = 1700Mbps
*.switch9.eth[3].bitrate = 1700Mbps
*.switch9.eth[4].bitrate = 1400Mbps
*.switch9.eth[5].bitrate = 2400Mbps
*.switch9.eth[6].bitrate = 1200Mbps
*.switch9.eth[7].bitrate = 1400Mbps
*.switch9.eth[8].bitrate = 1700Mbps
*.switch9.eth[9].bitrate = 2000Mbps
*.switch9.eth[10].bitrate = 1300Mbps
*.switch9.eth[11].bitrate = 2100Mbps
*.switch9.eth[12].bitrate = 1900Mbps
*.switch9.eth[13].bitrate = 2100Mbps
*.switch9.eth[14].bitrate = 2400Mbps
*.host10.eth[0].bitrate = 1000Mbps
*.switch10.eth[0].bitrate = 1000Mbps
*.switch10.eth[1].bitrate = 2200Mbps
*.switch10.eth[2].bitrate = 1800Mbps
*.switch10.eth[3].bitrate = 1300Mbps
*.switch10.eth[4].bitrate = 1400Mbps
*.switch10.eth[5].bitrate = 2100Mbps
*.switch10.eth[6].bitrate = 1900Mbps
*.switch10.eth[7].bitrate = 1800Mbps
*.host11.eth[0].bitrate = 1000Mbps
*.switch11.eth[0].bitrate = 1000Mbps
*.switch11.eth[1].bitrate = 2300Mbps
*.switch11.eth[2].bitrate = 1400Mbps
*.switch11.eth[3].bitrate = 1500Mbps
*.switch11.eth[4].bitrate = 2000Mbps
*.switch11.eth[5].bitrate = 1400Mbps
*.switch11.eth[6].bitrate = 1600Mbps
*.switch11.eth[7].bitrate = 1300Mbps
*.switch11.eth[8].bitrate = 1600Mbps
*.switch11.eth[9].bitrate = 2200Mbps
*.switch11.eth[10].bitrate = 2200Mbps
*.host12.eth[0].bitrate = 1000Mbps
*.switch12.eth[0].bitrate = 1000Mbps
*.switch12.eth[1].bitrate = 1500Mbps
*.switch12.eth[2].bitrate = 1200Mbps
*.switch12.eth[3].bitrate = 2400Mbps
*.switch12.eth[4].bitrate = 1800Mbps
*.switch12.eth[5].bitrate = 1200Mbps
*.switch12.eth[6].bitrate = 1900Mbps
*.switch12.eth[7].bitrate = 2200Mbps
*.switch12.eth[8].bitrate = 1300Mbps
*.switch12.eth[9].bitrate = 1200Mbps
*.switch12.eth[10].bitrate = 1400Mbps
*.switch12.eth[11].bitrate = 2000Mbps
*.switch12.eth[12].bitrate = 1900Mbps
*.switch12.eth[13].bitrate = 1400Mbps
*.switch12.eth[14].bitrate = 1600Mbps
*.host13.eth[0].bitrate = 1000Mbps
*.switch13.eth[0].bitrate = 1000Mbps
*.switch13.eth[1].bitrate = 1500Mbps
*.switch13.eth[2].bitrate = 1500Mbps
*.switch13.eth[3].bitrate = 1900Mbps
*.switch13.eth[4].bitrate = 2000Mbps
*.switch13.eth[5].bitrate = 1900Mbps
*.switch13.eth[6].bitrate = 2200Mbps
*.switch13.eth[7].bitrate = 1400Mbps
*.switch13.eth[8].bitrate = 2200Mbps
*.switch13.eth[9].bitrate = 2300Mbps
*.switch13.eth[10].bitrate = 2000Mbps
*.switch13.eth[11].bitrate = 2100Mbps
*.switch13.eth[12].bitrate = 1800Mbps
*.switch13.eth[13].bitrate = 1600Mbps
*.switch13.eth[14].bitrate = 1200Mbps
*.host14.eth[0].bitrate = 1000Mbps
*.switch14.eth[0].bitrate = 1000Mbps
*.switch14.eth[1].bitrate = 2000Mbps
*.switch14.eth[2].bitrate = 1700Mbps
*.switch14.eth[3].bitrate = 2000Mbps
*.switch14.eth[4].bitrate = 2000Mbps
*.switch14.eth[5].bitrate = 1400Mbps
*.switch14.eth[6].bitrate = 1400Mbps
*.switch14.eth[7].bitrate = 1400Mbps
*.switch14.eth[8].bitrate = 1700Mbps
*.switch14.eth[9].bitrate = 1200Mbps
*.switch14.eth[10].bitrate = 1800Mbps
*.switch14.eth[11].bitrate = 2200Mbps
*.switch14.eth[12].bitrate = 1300Mbps
*.switch14.eth[13].bitrate = 2400Mbps
*.switch14.eth[14].bitrate = 1200Mbps
*.host0.numApps = 0
*.host1.numApps = 0
*.host2.numApps = 3
*.host2.app[0].typename = "UdpSinkApp"
*.host2.app[0].io.localPort = 1000
*.host2.app[1].typename = "UdpSinkApp"
*.host2.app[1].io.localPort = 1001
*.host2.app[2].typename = "UdpSinkApp"
*.host2.app[2].io.localPort = 1002
*.host3.numApps = 7
*.host3.app[0].typename = "UdpSinkApp"
*.host3.app[0].io.localPort = 1000
*.host3.app[1].typename = "UdpBasicApp"
*.host3.app[1].destAddresses = "host14"
*.host3.app[1].source.packetNameFormat = "%M-%m-%c"
*.host3.app[1].source.displayStringTextFormat = "sent %p pk (%l)"
*.host3.app[1].messageLength = 18B
*.host3.app[1].sendInterval = 1ms
*.host3.app[1].startTime = 600us
*.host3.app[1].stopTime = 1100us
*.host3.app[1].display-name = "type2_5"
*.host3.app[1].destPort = 1001
*.host3.app[2].typename = "UdpBasicApp"
*.host3.app[2].destAddresses = "host14"
*.host3.app[2].source.packetNameFormat = "%M-%m-%c"
*.host3.app[2].source.displayStringTextFormat = "sent %p pk (%l)"
*.host3.app[2].messageLength = 18B
*.host3.app[2].sendInterval = 1ms
*.host3.app[2].startTime = 1200us
*.host3.app[2].stopTime = 4300us
*.host3.app[2].display-name = "type2_5"
*.host3.app[2].destPort = 1001
*.host3.app[3].typename = "UdpBasicApp"
*.host3.app[3].destAddresses = "host14"
*.host3.app[3].source.packetNameFormat = "%M-%m-%c"
*.host3.app[3].source.displayStringTextFormat = "sent %p pk (%l)"
*.host3.app[3].messageLength = 18B
*.host3.app[3].sendInterval = 1ms
*.host3.app[3].startTime = 4400us
*.host3.app[3].stopTime = 5100us
*.host3.app[3].display-name = "type2_5"
*.host3.app[3].destPort = 1001
*.host3.app[4].typename = "UdpBasicApp"
*.host3.app[4].destAddresses = "host14"
*.host3.app[4].source.packetNameFormat = "%M-%m-%c"
*.host3.app[4].source.displayStringTextFormat = "sent %p pk (%l)"
*.host3.app[4].messageLength = 18B
*.host3.app[4].sendInterval = 1ms
*.host3.app[4].startTime = 7000us
*.host3.app[4].stopTime = 7400us
*.host3.app[4].display-name = "type2_5"
*.host3.app[4].destPort = 1001
*.host3.app[5].typename = "UdpBasicApp"
*.host3.app[5].destAddresses = "host14"
*.host3.app[5].source.packetNameFormat = "%M-%m-%c"
*.host3.app[5].source.displayStringTextFormat = "sent %p pk (%l)"
*.host3.app[5].messageLength = 18B
*.host3.app[5].sendInterval = 1ms
*.host3.app[5].startTime = 7700us
*.host3.app[5].stopTime = 8400us
*.host3.app[5].display-name = "type2_5"
*.host3.app[5].destPort = 1001
*.host3.app[6].typename = "UdpBasicApp"
*.host3.app[6].destAddresses = "host14"
*.host3.app[6].source.packetNameFormat = "%M-%m-%c"
*.host3.app[6].source.displayStringTextFormat = "sent %p pk (%l)"
*.host3.app[6].messageLength = 18B
*.host3.app[6].sendInterval = 1ms
*.host3.app[6].startTime = 9200us
*.host3.app[6].stopTime = 10000us
*.host3.app[6].display-name = "type2_5"
*.host3.app[6].destPort = 1001
*.host4.numApps = 3
*.host4.app[0].typename = "UdpSinkApp"
*.host4.app[0].io.localPort = 1000
*.host4.app[1].typename = "UdpSourceApp"
*.host4.app[1].io.destAddress = "host2"
*.host4.app[1].source.packetNameFormat = "%M-%m-%c"
*.host4.app[1].source.displayStringTextFormat = "sent %p pk (%l)"
*.host4.app[1].source.packetLength = 21B
*.host4.app[1].source.productionInterval = 1ms
*.host4.app[1].display-name = "type1_5"
*.host4.app[1].io.destPort = 1002
*.host4.app[2].typename = "UdpSinkApp"
*.host4.app[2].io.localPort = 1001
*.host5.numApps = 13
*.host5.app[0].typename = "UdpSourceApp"
*.host5.app[0].io.destAddress = "host3"
*.host5.app[0].source.packetNameFormat = "%M-%m-%c"
*.host5.app[0].source.displayStringTextFormat = "sent %p pk (%l)"
*.host5.app[0].source.packetLength = 13B
*.host5.app[0].source.productionInterval = 1ms
*.host5.app[0].display-name = "type1_0"
*.host5.app[0].io.destPort = 1000
*.host5.app[1].typename = "UdpBasicApp"
*.host5.app[1].destAddresses = "host12"
*.host5.app[1].source.packetNameFormat = "%M-%m-%c"
*.host5.app[1].source.displayStringTextFormat = "sent %p pk (%l)"
*.host5.app[1].messageLength = 16B
*.host5.app[1].sendInterval = 1ms
*.host5.app[1].startTime = 200us
*.host5.app[1].stopTime = 400us
*.host5.app[1].display-name = "type2_4"
*.host5.app[1].destPort = 1000
*.host5.app[2].typename = "UdpBasicApp"
*.host5.app[2].destAddresses = "host12"
*.host5.app[2].source.packetNameFormat = "%M-%m-%c"
*.host5.app[2].source.displayStringTextFormat = "sent %p pk (%l)"
*.host5.app[2].messageLength = 16B
*.host5.app[2].sendInterval = 1ms
*.host5.app[2].startTime = 1200us
*.host5.app[2].stopTime = 2600us
*.host5.app[2].display-name = "type2_4"
*.host5.app[2].destPort = 1000
*.host5.app[3].typename = "UdpBasicApp"
*.host5.app[3].destAddresses = "host12"
*.host5.app[3].source.packetNameFormat = "%M-%m-%c"
*.host5.app[3].source.displayStringTextFormat = "sent %p pk (%l)"
*.host5.app[3].messageLength = 16B
*.host5.app[3].sendInterval = 1ms
*.host5.app[3].startTime = 3500us
*.host5.app[3].stopTime = 3700us
*.host5.app[3].display-name = "type2_4"
*.host5.app[3].destPort = 1000
*.host5.app[4].typename = "UdpBasicApp"
*.host5.app[4].destAddresses = "host12"
*.host5.app[4].source.packetNameFormat = "%M-%m-%c"
*.host5.app[4].source.displayStringTextFormat = "sent %p pk (%l)"
*.host5.app[4].messageLength = 16B
*.host5.app[4].sendInterval = 1ms
*.host5.app[4].startTime = 4400us
*.host5.app[4].stopTime = 6500us
*.host5.app[4].display-name = "type2_4"
*.host5.app[4].destPort = 1000
*.host5.app[5].typename = "UdpBasicApp"
*.host5.app[5].destAddresses = "host12"
*.host5.app[5].source.packetNameFormat = "%M-%m-%c"
*.host5.app[5].source.displayStringTextFormat = "sent %p pk (%l)"
*.host5.app[5].messageLength = 16B
*.host5.app[5].sendInterval = 1ms
*.host5.app[5].startTime = 7100us
*.host5.app[5].stopTime = 7300us
*.host5.app[5].display-name = "type2_4"
*.host5.app[5].destPort = 1000
*.host5.app[6].typename = "UdpBasicApp"
*.host5.app[6].destAddresses = "host12"
*.host5.app[6].source.packetNameFormat = "%M-%m-%c"
*.host5.app[6].source.displayStringTextFormat = "sent %p pk (%l)"
*.host5.app[6].messageLength = 16B
*.host5.app[6].sendInterval = 1ms
*.host5.app[6].startTime = 7400us
*.host5.app[6].stopTime = 9200us
*.host5.app[6].display-name = "type2_4"
*.host5.app[6].destPort = 1000
*.host5.app[7].typename = "UdpBasicApp"
*.host5.app[7].destAddresses = "host14"
*.host5.app[7].source.packetNameFormat = "%M-%m-%c"
*.host5.app[7].source.displayStringTextFormat = "sent %p pk (%l)"
*.host5.app[7].messageLength = 19B
*.host5.app[7].sendInterval = 1ms
*.host5.app[7].startTime = 2300us
*.host5.app[7].stopTime = 2700us
*.host5.app[7].display-name = "type2_6"
*.host5.app[7].destPort = 1002
*.host5.app[8].typename = "UdpBasicApp"
*.host5.app[8].destAddresses = "host14"
*.host5.app[8].source.packetNameFormat = "%M-%m-%c"
*.host5.app[8].source.displayStringTextFormat = "sent %p pk (%l)"
*.host5.app[8].messageLength = 19B
*.host5.app[8].sendInterval = 1ms
*.host5.app[8].startTime = 3600us
*.host5.app[8].stopTime = 4500us
*.host5.app[8].display-name = "type2_6"
*.host5.app[8].destPort = 1002
*.host5.app[9].typename = "UdpBasicApp"
*.host5.app[9].destAddresses = "host14"
*.host5.app[9].source.packetNameFormat = "%M-%m-%c"
*.host5.app[9].source.displayStringTextFormat = "sent %p pk (%l)"
*.host5.app[9].messageLength = 19B
*.host5.app[9].sendInterval = 1ms
*.host5.app[9].startTime = 4700us
*.host5.app[9].stopTime = 4800us
*.host5.app[9].display-name = "type2_6"
*.host5.app[9].destPort = 1002
*.host5.app[10].typename = "UdpBasicApp"
*.host5.app[10].destAddresses = "host14"
*.host5.app[10].source.packetNameFormat = "%M-%m-%c"
*.host5.app[10].source.displayStringTextFormat = "sent %p pk (%l)"
*.host5.app[10].messageLength = 19B
*.host5.app[10].sendInterval = 1ms
*.host5.app[10].startTime = 7300us
*.host5.app[10].stopTime = 7600us
*.host5.app[10].display-name = "type2_6"
*.host5.app[10].destPort = 1002
*.host5.app[11].typename = "UdpBasicApp"
*.host5.app[11].destAddresses = "host14"
*.host5.app[11].source.packetNameFormat = "%M-%m-%c"
*.host5.app[11].source.displayStringTextFormat = "sent %p pk (%l)"
*.host5.app[11].messageLength = 19B
*.host5.app[11].sendInterval = 1ms
*.host5.app[11].startTime = 8200us
*.host5.app[11].stopTime = 8700us
*.host5.app[11].display-name = "type2_6"
*.host5.app[11].destPort = 1002
*.host5.app[12].typename = "UdpBasicApp"
*.host5.app[12].destAddresses = "host14"
*.host5.app[12].source.packetNameFormat = "%M-%m-%c"
*.host5.app[12].source.displayStringTextFormat = "sent %p pk (%l)"
*.host5.app[12].messageLength = 19B
*.host5.app[12].sendInterval = 1ms
*.host5.app[12].startTime = 9200us
*.host5.app[12].stopTime = 9700us
*.host5.app[12].display-name = "type2_6"
*.host5.app[12].destPort = 1002
*.host6.numApps = 2
*.host6.app[0].typename = "UdpSourceApp"
*.host6.app[0].io.destAddress = "host9"
*.host6.app[0].source.packetNameFormat = "%M-%m-%c"
*.host6.app[0].source.displayStringTextFormat = "sent %p pk (%l)"
*.host6.app[0].source.packetLength = 15B
*.host6.app[0].source.productionInterval = 1ms
*.host6.app[0].display-name = "type1_6"
*.host6.app[0].io.destPort = 1000
*.host6.app[1].typename = "UdpSinkApp"
*.host6.app[1].io.localPort = 1000
*.host7.numApps = 8
*.host7.app[0].typename = "UdpSinkApp"
*.host7.app[0].io.localPort = 1000
*.host7.app[1].typename = "UdpSourceApp"
*.host7.app[1].io.destAddress = "host2"
*.host7.app[1].source.packetNameFormat = "%M-%m-%c"
*.host7.app[1].source.displayStringTextFormat = "sent %p pk (%l)"
*.host7.app[1].source.packetLength = 24B
*.host7.app[1].source.productionInterval = 1ms
*.host7.app[1].display-name = "type1_3"
*.host7.app[1].io.destPort = 1000
*.host7.app[2].typename = "UdpBasicApp"
*.host7.app[2].destAddresses = "host8"
*.host7.app[2].source.packetNameFormat = "%M-%m-%c"
*.host7.app[2].source.displayStringTextFormat = "sent %p pk (%l)"
*.host7.app[2].messageLength = 23B
*.host7.app[2].sendInterval = 1ms
*.host7.app[2].startTime = 100us
*.host7.app[2].stopTime = 900us
*.host7.app[2].display-name = "type2_1"
*.host7.app[2].destPort = 1000
*.host7.app[3].typename = "UdpBasicApp"
*.host7.app[3].destAddresses = "host8"
*.host7.app[3].source.packetNameFormat = "%M-%m-%c"
*.host7.app[3].source.displayStringTextFormat = "sent %p pk (%l)"
*.host7.app[3].messageLength = 23B
*.host7.app[3].sendInterval = 1ms
*.host7.app[3].startTime = 1600us
*.host7.app[3].stopTime = 3000us
*.host7.app[3].display-name = "type2_1"
*.host7.app[3].destPort = 1000
*.host7.app[4].typename = "UdpBasicApp"
*.host7.app[4].destAddresses = "host8"
*.host7.app[4].source.packetNameFormat = "%M-%m-%c"
*.host7.app[4].source.displayStringTextFormat = "sent %p pk (%l)"
*.host7.app[4].messageLength = 23B
*.host7.app[4].sendInterval = 1ms
*.host7.app[4].startTime = 6000us
*.host7.app[4].stopTime = 7400us
*.host7.app[4].display-name = "type2_1"
*.host7.app[4].destPort = 1000
*.host7.app[5].typename = "UdpBasicApp"
*.host7.app[5].destAddresses = "host8"
*.host7.app[5].source.packetNameFormat = "%M-%m-%c"
*.host7.app[5].source.displayStringTextFormat = "sent %p pk (%l)"
*.host7.app[5].messageLength = 23B
*.host7.app[5].sendInterval = 1ms
*.host7.app[5].startTime = 7600us
*.host7.app[5].stopTime = 8200us
*.host7.app[5].display-name = "type2_1"
*.host7.app[5].destPort = 1000
*.host7.app[6].typename = "UdpBasicApp"
*.host7.app[6].destAddresses = "host8"
*.host7.app[6].source.packetNameFormat = "%M-%m-%c"
*.host7.app[6].source.displayStringTextFormat = "sent %p pk (%l)"
*.host7.app[6].messageLength = 23B
*.host7.app[6].sendInterval = 1ms
*.host7.app[6].startTime = 8400us
*.host7.app[6].stopTime = 8800us
*.host7.app[6].display-name = "type2_1"
*.host7.app[6].destPort = 1000
*.host7.app[7].typename = "UdpBasicApp"
*.host7.app[7].destAddresses = "host8"
*.host7.app[7].source.packetNameFormat = "%M-%m-%c"
*.host7.app[7].source.displayStringTextFormat = "sent %p pk (%l)"
*.host7.app[7].messageLength = 23B
*.host7.app[7].sendInterval = 1ms
*.host7.app[7].startTime = 9700us
*.host7.app[7].stopTime = 10000us
*.host7.app[7].display-name = "type2_1"
*.host7.app[7].destPort = 1000
*.host8.numApps = 10
*.host8.app[0].typename = "UdpSourceApp"
*.host8.app[0].io.destAddress = "host7"
*.host8.app[0].source.packetNameFormat = "%M-%m-%c"
*.host8.app[0].source.displayStringTextFormat = "sent %p pk (%l)"
*.host8.app[0].source.packetLength = 15B
*.host8.app[0].source.productionInterval = 1ms
*.host8.app[0].display-name = "type1_1"
*.host8.app[0].io.destPort = 1000
*.host8.app[1].typename = "UdpSourceApp"
*.host8.app[1].io.destAddress = "host4"
*.host8.app[1].source.packetNameFormat = "%M-%m-%c"
*.host8.app[1].source.displayStringTextFormat = "sent %p pk (%l)"
*.host8.app[1].source.packetLength = 23B
*.host8.app[1].source.productionInterval = 1ms
*.host8.app[1].display-name = "type1_2"
*.host8.app[1].io.destPort = 1000
*.host8.app[2].typename = "UdpSinkApp"
*.host8.app[2].io.localPort = 1000
*.host8.app[3].typename = "UdpBasicApp"
*.host8.app[3].destAddresses = "host14"
*.host8.app[3].source.packetNameFormat = "%M-%m-%c"
*.host8.app[3].source.displayStringTextFormat = "sent %p pk (%l)"
*.host8.app[3].messageLength = 19B
*.host8.app[3].sendInterval = 1ms
*.host8.app[3].startTime = 100us
*.host8.app[3].stopTime = 400us
*.host8.app[3].display-name = "type2_3"
*.host8.app[3].destPort = 1000
*.host8.app[4].typename = "UdpBasicApp"
*.host8.app[4].destAddresses = "host14"
*.host8.app[4].source.packetNameFormat = "%M-%m-%c"
*.host8.app[4].source.displayStringTextFormat = "sent %p pk (%l)"
*.host8.app[4].messageLength = 19B
*.host8.app[4].sendInterval = 1ms
*.host8.app[4].startTime = 500us
*.host8.app[4].stopTime = 600us
*.host8.app[4].display-name = "type2_3"
*.host8.app[4].destPort = 1000
*.host8.app[5].typename = "UdpBasicApp"
*.host8.app[5].destAddresses = "host14"
*.host8.app[5].source.packetNameFormat = "%M-%m-%c"
*.host8.app[5].source.displayStringTextFormat = "sent %p pk (%l)"
*.host8.app[5].messageLength = 19B
*.host8.app[5].sendInterval = 1ms
*.host8.app[5].startTime = 2800us
*.host8.app[5].stopTime = 3200us
*.host8.app[5].display-name = "type2_3"
*.host8.app[5].destPort = 1000
*.host8.app[6].typename = "UdpBasicApp"
*.host8.app[6].destAddresses = "host14"
*.host8.app[6].source.packetNameFormat = "%M-%m-%c"
*.host8.app[6].source.displayStringTextFormat = "sent %p pk (%l)"
*.host8.app[6].messageLength = 19B
*.host8.app[6].sendInterval = 1ms
*.host8.app[6].startTime = 3900us
*.host8.app[6].stopTime = 5200us
*.host8.app[6].display-name = "type2_3"
*.host8.app[6].destPort = 1000
*.host8.app[7].typename = "UdpBasicApp"
*.host8.app[7].destAddresses = "host14"
*.host8.app[7].source.packetNameFormat = "%M-%m-%c"
*.host8.app[7].source.displayStringTextFormat = "sent %p pk (%l)"
*.host8.app[7].messageLength = 19B
*.host8.app[7].sendInterval = 1ms
*.host8.app[7].startTime = 5300us
*.host8.app[7].stopTime = 7200us
*.host8.app[7].display-name = "type2_3"
*.host8.app[7].destPort = 1000
*.host8.app[8].typename = "UdpBasicApp"
*.host8.app[8].destAddresses = "host14"
*.host8.app[8].source.packetNameFormat = "%M-%m-%c"
*.host8.app[8].source.displayStringTextFormat = "sent %p pk (%l)"
*.host8.app[8].messageLength = 19B
*.host8.app[8].sendInterval = 1ms
*.host8.app[8].startTime = 7400us
*.host8.app[8].stopTime = 8100us
*.host8.app[8].display-name = "type2_3"
*.host8.app[8].destPort = 1000
*.host8.app[9].typename = "UdpBasicApp"
*.host8.app[9].destAddresses = "host14"
*.host8.app[9].source.packetNameFormat = "%M-%m-%c"
*.host8.app[9].source.displayStringTextFormat = "sent %p pk (%l)"
*.host8.app[9].messageLength = 19B
*.host8.app[9].sendInterval = 1ms
*.host8.app[9].startTime = 8300us
*.host8.app[9].stopTime = 9100us
*.host8.app[9].display-name = "type2_3"
*.host8.app[9].destPort = 1000
*.host9.numApps = 8
*.host9.app[0].typename = "UdpSinkApp"
*.host9.app[0].io.localPort = 1000
*.host9.app[1].typename = "UdpBasicApp"
*.host9.app[1].destAddresses = "host4"
*.host9.app[1].source.packetNameFormat = "%M-%m-%c"
*.host9.app[1].source.displayStringTextFormat = "sent %p pk (%l)"
*.host9.app[1].messageLength = 21B
*.host9.app[1].sendInterval = 1ms
*.host9.app[1].startTime = 100us
*.host9.app[1].stopTime = 1000us
*.host9.app[1].display-name = "type2_2"
*.host9.app[1].destPort = 1001
*.host9.app[2].typename = "UdpBasicApp"
*.host9.app[2].destAddresses = "host4"
*.host9.app[2].source.packetNameFormat = "%M-%m-%c"
*.host9.app[2].source.displayStringTextFormat = "sent %p pk (%l)"
*.host9.app[2].messageLength = 21B
*.host9.app[2].sendInterval = 1ms
*.host9.app[2].startTime = 1200us
*.host9.app[2].stopTime = 1300us
*.host9.app[2].display-name = "type2_2"
*.host9.app[2].destPort = 1001
*.host9.app[3].typename = "UdpBasicApp"
*.host9.app[3].destAddresses = "host4"
*.host9.app[3].source.packetNameFormat = "%M-%m-%c"
*.host9.app[3].source.displayStringTextFormat = "sent %p pk (%l)"
*.host9.app[3].messageLength = 21B
*.host9.app[3].sendInterval = 1ms
*.host9.app[3].startTime = 1400us
*.host9.app[3].stopTime = 1700us
*.host9.app[3].display-name = "type2_2"
*.host9.app[3].destPort = 1001
*.host9.app[4].typename = "UdpBasicApp"
*.host9.app[4].destAddresses = "host4"
*.host9.app[4].source.packetNameFormat = "%M-%m-%c"
*.host9.app[4].source.displayStringTextFormat = "sent %p pk (%l)"
*.host9.app[4].messageLength = 21B
*.host9.app[4].sendInterval = 1ms
*.host9.app[4].startTime = 2500us
*.host9.app[4].stopTime = 3200us
*.host9.app[4].display-name = "type2_2"
*.host9.app[4].destPort = 1001
*.host9.app[5].typename = "UdpBasicApp"
*.host9.app[5].destAddresses = "host4"
*.host9.app[5].source.packetNameFormat = "%M-%m-%c"
*.host9.app[5].source.displayStringTextFormat = "sent %p pk (%l)"
*.host9.app[5].messageLength = 21B
*.host9.app[5].sendInterval = 1ms
*.host9.app[5].startTime = 7200us
*.host9.app[5].stopTime = 8400us
*.host9.app[5].display-name = "type2_2"
*.host9.app[5].destPort = 1001
*.host9.app[6].typename = "UdpBasicApp"
*.host9.app[6].destAddresses = "host4"
*.host9.app[6].source.packetNameFormat = "%M-%m-%c"
*.host9.app[6].source.displayStringTextFormat = "sent %p pk (%l)"
*.host9.app[6].messageLength = 21B
*.host9.app[6].sendInterval = 1ms
*.host9.app[6].startTime = 8600us
*.host9.app[6].stopTime = 9500us
*.host9.app[6].display-name = "type2_2"
*.host9.app[6].destPort = 1001
*.host9.app[7].typename = "UdpBasicApp"
*.host9.app[7].destAddresses = "host4"
*.host9.app[7].source.packetNameFormat = "%M-%m-%c"
*.host9.app[7].source.displayStringTextFormat = "sent %p pk (%l)"
*.host9.app[7].messageLength = 21B
*.host9.app[7].sendInterval = 1ms
*.host9.app[7].startTime = 9800us
*.host9.app[7].stopTime = 10000us
*.host9.app[7].display-name = "type2_2"
*.host9.app[7].destPort = 1001
*.host10.numApps = 1
*.host10.app[0].typename = "UdpSourceApp"
*.host10.app[0].io.destAddress = "host2"
*.host10.app[0].source.packetNameFormat = "%M-%m-%c"
*.host10.app[0].source.displayStringTextFormat = "sent %p pk (%l)"
*.host10.app[0].source.packetLength = 24B
*.host10.app[0].source.productionInterval = 1ms
*.host10.app[0].display-name = "type1_4"
*.host10.app[0].io.destPort = 1001
*.host11.numApps = 0
*.host12.numApps = 6
*.host12.app[0].typename = "UdpBasicApp"
*.host12.app[0].destAddresses = "host6"
*.host12.app[0].source.packetNameFormat = "%M-%m-%c"
*.host12.app[0].source.displayStringTextFormat = "sent %p pk (%l)"
*.host12.app[0].messageLength = 18B
*.host12.app[0].sendInterval = 1ms
*.host12.app[0].startTime = 800us
*.host12.app[0].stopTime = 900us
*.host12.app[0].display-name = "type2_0"
*.host12.app[0].destPort = 1000
*.host12.app[1].typename = "UdpBasicApp"
*.host12.app[1].destAddresses = "host6"
*.host12.app[1].source.packetNameFormat = "%M-%m-%c"
*.host12.app[1].source.displayStringTextFormat = "sent %p pk (%l)"
*.host12.app[1].messageLength = 18B
*.host12.app[1].sendInterval = 1ms
*.host12.app[1].startTime = 2500us
*.host12.app[1].stopTime = 2700us
*.host12.app[1].display-name = "type2_0"
*.host12.app[1].destPort = 1000
*.host12.app[2].typename = "UdpBasicApp"
*.host12.app[2].destAddresses = "host6"
*.host12.app[2].source.packetNameFormat = "%M-%m-%c"
*.host12.app[2].source.displayStringTextFormat = "sent %p pk (%l)"
*.host12.app[2].messageLength = 18B
*.host12.app[2].sendInterval = 1ms
*.host12.app[2].startTime = 3700us
*.host12.app[2].stopTime = 4900us
*.host12.app[2].display-name = "type2_0"
*.host12.app[2].destPort = 1000
*.host12.app[3].typename = "UdpBasicApp"
*.host12.app[3].destAddresses = "host6"
*.host12.app[3].source.packetNameFormat = "%M-%m-%c"
*.host12.app[3].source.displayStringTextFormat = "sent %p pk (%l)"
*.host12.app[3].messageLength = 18B
*.host12.app[3].sendInterval = 1ms
*.host12.app[3].startTime = 5300us
*.host12.app[3].stopTime = 5600us
*.host12.app[3].display-name = "type2_0"
*.host12.app[3].destPort = 1000
*.host12.app[4].typename = "UdpBasicApp"
*.host12.app[4].destAddresses = "host6"
*.host12.app[4].source.packetNameFormat = "%M-%m-%c"
*.host12.app[4].source.displayStringTextFormat = "sent %p pk (%l)"
*.host12.app[4].messageLength = 18B
*.host12.app[4].sendInterval = 1ms
*.host12.app[4].startTime = 7600us
*.host12.app[4].stopTime = 9400us
*.host12.app[4].display-name = "type2_0"
*.host12.app[4].destPort = 1000
*.host12.app[5].typename = "UdpSinkApp"
*.host12.app[5].io.localPort = 1000
*.host13.numApps = 0
*.host14.numApps = 3
*.host14.app[0].typename = "UdpSinkApp"
*.host14.app[0].io.localPort = 1000
*.host14.app[1].typename = "UdpSinkApp"
*.host14.app[1].io.localPort = 1001
*.host14.app[2].typename = "UdpSinkApp"
*.host14.app[2].io.localPort = 1002
*.streamRedundancyConfigurator.configuration = [
	{
		name: "S1-0",
		packetFilter: "*-type1_0-*",
		source: "host5",
		destination: "host3",
		trees: [[["host5", "switch5", "switch14", "switch7", "switch3", "host3"]]]
	},
	{