[General]
network = TSN_multipath
sim-time-limit = 100ms
*.macForwardingTableConfigurator.typename = ""
*.*.hasStreamRedundancy = true
*.*.bridging.streamRelay.typename = "StreamRelayLayer"
*.*.bridging.streamCoder.typename = "StreamCoderLayer"
*.streamRedundancyConfigurator.typename = "StreamRedundancyConfigurator"
*.host0.eth[0].bitrate = 1000Mbps
*.switch0.eth[0].bitrate = 1000Mbps
*.switch0.eth[1].bitrate = 1200Mbps
*.switch0.eth[2].bitrate = 2100Mbps
*.switch0.eth[3].bitrate = 2300Mbps
*.switch0.eth[4].bitrate = 1700Mbps
*.switch0.eth[5].bitrate = 2200Mbps
*.host1.eth[0].bitrate = 1000Mbps
*.switch1.eth[0].bitrate = 1000Mbps
*.switch1.eth[1].bitrate = 1200Mbps
*.switch1.eth[2].bitrate = 2300Mbps
*.switch1.eth[3].bitrate = 2300Mbps
*.switch1.eth[4].bitrate = 1600Mbps
*.switch1.eth[5].bitrate = 2100Mbps
*.switch1.eth[6].bitrate = 1200Mbps
*.host2.eth[0].bitrate = 1000Mbps
*.switch2.eth[0].bitrate = 1000Mbps
*.switch2.eth[1].bitrate = 2300Mbps
*.switch2.eth[2].bitrate = 1700Mbps
*.switch2.eth[3].bitrate = 1400Mbps
*.switch2.eth[4].bitrate = 1500Mbps
*.host3.eth[0].bitrate = 1000Mbps
*.switch3.eth[0].bitrate = 1000Mbps
*.switch3.eth[1].bitrate = 2100Mbps
*.switch3.eth[2].bitrate = 2200Mbps
*.switch3.eth[3].bitrate = 2100Mbps
*.switch3.eth[4].bitrate = 1500Mbps
*.host4.eth[0].bitrate = 1000Mbps
*.switch4.eth[0].bitrate = 1000Mbps
*.switch4.eth[1].bitrate = 1600Mbps
*.switch4.eth[2].bitrate = 1400Mbps
*.switch4.eth[3].bitrate = 1200Mbps
*.host0.numApps = 8
*.host0.app[0].typename = "UdpSourceApp"
*.host0.app[0].io.destAddress = "host2"
*.host0.app[0].source.packetNameFormat = "%M-%m-%c"
*.host0.app[0].source.displayStringTextFormat = "sent %p pk (%l)"
*.host0.app[0].source.packetLength = 17B
*.host0.app[0].source.productionInterval = 1ms
*.host0.app[0].display-name = "type1_0"
*.host0.app[0].io.destPort = 1000
*.host0.app[1].typename = "UdpSinkApp"
*.host0.app[1].io.localPort = 1000
*.host0.app[2].typename = "UdpSinkApp"
*.host0.app[2].io.localPort = 1001
*.host0.app[3].typename = "UdpBasicApp"
*.host0.app[3].destAddresses = "host4"
*.host0.app[3].source.packetNameFormat = "%M-%m-%c"
*.host0.app[3].source.displayStringTextFormat = "sent %p pk (%l)"
*.host0.app[3].messageLength = 22B
*.host0.app[3].sendInterval = 1ms
*.host0.app[3].startTime = 0ms
*.host0.app[3].stopTime = 11ms
*.host0.app[3].display-name = "type2_2"
*.host0.app[3].destPort = 1000
*.host0.app[4].typename = "UdpBasicApp"
*.host0.app[4].destAddresses = "host4"
*.host0.app[4].source.packetNameFormat = "%M-%m-%c"
*.host0.app[4].source.displayStringTextFormat = "sent %p pk (%l)"
*.host0.app[4].messageLength = 22B
*.host0.app[4].sendInterval = 1ms
*.host0.app[4].startTime = 13ms
*.host0.app[4].stopTime = 27ms
*.host0.app[4].display-name = "type2_2"
*.host0.app[4].destPort = 1000
*.host0.app[5].typename = "UdpBasicApp"
*.host0.app[5].destAddresses = "host4"
*.host0.app[5].source.packetNameFormat = "%M-%m-%c"
*.host0.app[5].source.displayStringTextFormat = "sent %p pk (%l)"
*.host0.app[5].messageLength = 22B
*.host0.app[5].sendInterval = 1ms
*.host0.app[5].startTime = 34ms
*.host0.app[5].stopTime = 37ms
*.host0.app[5].display-name = "type2_2"
*.host0.app[5].destPort = 1000
*.host0.app[6].typename = "UdpBasicApp"
*.host0.app[6].destAddresses = "host4"
*.host0.app[6].source.packetNameFormat = "%M-%m-%c"
*.host0.app[6].source.displayStringTextFormat = "sent %p pk (%l)"
*.host0.app[6].messageLength = 22B
*.host0.app[6].sendInterval = 1ms
*.host0.app[6].startTime = 45ms
*.host0.app[6].stopTime = 69ms
*.host0.app[6].display-name = "type2_2"
*.host0.app[6].destPort = 1000
*.host0.app[7].typename = "UdpBasicApp"
*.host0.app[7].destAddresses = "host4"
*.host0.app[7].source.packetNameFormat = "%M-%m-%c"
*.host0.app[7].source.displayStringTextFormat = "sent %p pk (%l)"
*.host0.app[7].messageLength = 22B
*.host0.app[7].sendInterval = 1ms
*.host0.app[7].startTime = 85ms
*.host0.app[7].stopTime = 88ms
*.host0.app[7].display-name = "type2_2"
*.host0.app[7].destPort = 1000
*.host1.numApps = 0
*.host2.numApps = 1
*.host2.app[0].typename = "UdpSinkApp"
*.host2.app[0].io.localPort = 1000
*.host3.numApps = 7
*.host3.app[0].typename = "UdpBasicApp"
*.host3.app[0].destAddresses = "host0"
*.host3.app[0].source.packetNameFormat = "%M-%m-%c"
*.host3.app[0].source.displayStringTextFormat = "sent %p pk (%l)"
*.host3.app[0].messageLength = 12B
*.host3.app[0].sendInterval = 1ms
*.host3.app[0].startTime = 19ms
*.host3.app[0].stopTime = 26ms
*.host3.app[0].display-name = "type2_1"
*.host3.app[0].destPort = 1001
*.host3.app[1].typename = "UdpBasicApp"
*.host3.app[1].destAddresses = "host0"
*.host3.app[1].source.packetNameFormat = "%M-%m-%c"
*.host3.app[1].source.displayStringTextFormat = "sent %p pk (%l)"
*.host3.app[1].messageLength = 12B
*.host3.app[1].sendInterval = 1ms
*.host3.app[1].startTime = 27ms
*.host3.app[1].stopTime = 35ms
*.host3.app[1].display-name = "type2_1"
*.host3.app[1].destPort = 1001
*.host3.app[2].typename = "UdpBasicApp"
*.host3.app[2].destAddresses = "host0"
*.host3.app[2].source.packetNameFormat = "%M-%m-%c"
*.host3.app[2].source.displayStringTextFormat = "sent %p pk (%l)"
*.host3.app[2].messageLength = 12B
*.host3.app[2].sendInterval = 1ms
*.host3.app[2].startTime = 36ms
*.host3.app[2].stopTime = 38ms
*.host3.app[2].display-name = "type2_1"
*.host3.app[2].destPort = 1001
*.host3.app[3].typename = "UdpBasicApp"
*.host3.app[3].destAddresses = "host0"
*.host3.app[3].source.packetNameFormat = "%M-%m-%c"
*.host3.app[3].source.displayStringTextFormat = "sent %p pk (%l)"
*.host3.app[3].messageLength = 12B
*.host3.app[3].sendInterval = 1ms
*.host3.app[3].startTime = 44ms
*.host3.app[3].stopTime = 52ms
*.host3.app[3].display-name = "type2_1"
*.host3.app[3].destPort = 1001
*.host3.app[4].typename = "UdpBasicApp"
*.host3.app[4].destAddresses = "host0"
*.host3.app[4].source.packetNameFormat = "%M-%m-%c"
*.host3.app[4].source.displayStringTextFormat = "sent %p pk (%l)"
*.host3.app[4].messageLength = 12B
*.host3.app[4].sendInterval = 1ms
*.host3.app[4].startTime = 70ms
*.host3.app[4].stopTime = 71ms
*.host3.app[4].display-name = "type2_1"
*.host3.app[4].destPort = 1001
*.host3.app[5].typename = "UdpBasicApp"
*.host3.app[5].destAddresses = "host0"
*.host3.app[5].source.packetNameFormat = "%M-%m-%c"
*.host3.app[5].source.displayStringTextFormat = "sent %p pk (%l)"
*.host3.app[5].messageLength = 12B
*.host3.app[5].sendInterval = 1ms
*.host3.app[5].startTime = 84ms
*.host3.app[5].stopTime = 86ms
*.host3.app[5].display-name = "type2_1"
*.host3.app[5].destPort = 1001
*.host3.app[6].typename = "UdpBasicApp"
*.host3.app[6].destAddresses = "host0"
*.host3.app[6].source.packetNameFormat = "%M-%m-%c"
*.host3.app[6].source.displayStringTextFormat = "sent %p pk (%l)"
*.host3.app[6].messageLength = 12B
*.host3.app[6].sendInterval = 1ms
*.host3.app[6].startTime = 96ms
*.host3.app[6].stopTime = 100ms
*.host3.app[6].display-name = "type2_1"
*.host3.app[6].destPort = 1001
*.host4.numApps = 7
*.host4.app[0].typename = "UdpBasicApp"
*.host4.app[0].destAddresses = "host0"
*.host4.app[0].source.packetNameFormat = "%M-%m-%c"
*.host4.app[0].source.displayStringTextFormat = "sent %p pk (%l)"
*.host4.app[0].messageLength = 13B
*.host4.app[0].sendInterval = 1ms
*.host4.app[0].startTime = 17ms
*.host4.app[0].stopTime = 30ms
*.host4.app[0].display-name = "type2_0"
*.host4.app[0].destPort = 1000
*.host4.app[1].typename = "UdpBasicApp"
*.host4.app[1].destAddresses = "host0"
*.host4.app[1].source.packetNameFormat = "%M-%m-%c"
*.host4.app[1].source.displayStringTextFormat = "sent %p pk (%l)"
*.host4.app[1].messageLength = 13B
*.host4.app[1].sendInterval = 1ms
*.host4.app[1].startTime = 44ms
*.host4.app[1].stopTime = 46ms
*.host4.app[1].display-name = "type2_0"
*.host4.app[1].destPort = 1000
*.host4.app[2].typename = "UdpBasicApp"
*.host4.app[2].destAddresses = "host0"
*.host4.app[2].source.packetNameFormat = "%M-%m-%c"
*.host4.app[2].source.displayStringTextFormat = "sent %p pk (%l)"
*.host4.app[2].messageLength = 13B
*.host4.app[2].sendInterval = 1ms
*.host4.app[2].startTime = 55ms
*.host4.app[2].stopTime = 66ms
*.host4.app[2].display-name = "type2_0"
*.host4.app[2].destPort = 1000
*.host4.app[3].typename = "UdpBasicApp"
*.host4.app[3].destAddresses = "host0"
*.host4.app[3].source.packetNameFormat = "%M-%m-%c"
*.host4.app[3].source.displayStringTextFormat = "sent %p pk (%l)"
*.host4.app[3].messageLength = 13B
*.host4.app[3].sendInterval = 1ms
*.host4.app[3].startTime = 71ms
*.host4.app[3].stopTime = 78ms
*.host4.app[3].display-name = "type2_0"
*.host4.app[3].destPort = 1000
*.host4.app[4].typename = "UdpBasicApp"
*.host4.app[4].destAddresses = "host0"
*.host4.app[4].source.packetNameFormat = "%M-%m-%c"
*.host4.app[4].source.displayStringTextFormat = "sent %p pk (%l)"
*.host4.app[4].messageLength = 13B
*.host4.app[4].sendInterval = 1ms
*.host4.app[4].startTime = 80ms
*.host4.app[4].stopTime = 84ms
*.host4.app[4].display-name = "type2_0"
*.host4.app[4].destPort = 1000
*.host4.app[5].typename = "UdpBasicApp"
*.host4.app[5].destAddresses = "host0"
*.host4.app[5].source.packetNameFormat = "%M-%m-%c"
*.host4.app[5].source.displayStringTextFormat = "sent %p pk (%l)"
*.host4.app[5].messageLength = 13B
*.host4.app[5].sendInterval = 1ms
*.host4.app[5].startTime = 98ms
*.host4.app[5].stopTime = 100ms
*.host4.app[5].display-name = "type2_0"
*.host4.app[5].destPort = 1000
*.host4.app[6].typename = "UdpSinkApp"
*.host4.app[6].io.localPort = 1000
*.streamRedundancyConfigurator.configuration = [
	{
		name: "S1-0",
		packetFilter: "*-type1_0-*",
		source: "host0",
		destination: "host2",
		trees: [[["host0", "switch0", "switch1", "switch2", "host2"]]]
	},
	{
		name: "S2-0",
		packetFilter: "*-type2_0-*",
		source: "host4",
		destination: "host0",
		trees: [[["host4", "switch4", "switch1", "switch0", "host0"]]]
	},
	{
		name: "S2-1",
		packetFilter: "*-type2_1-*",
		source: "host3",
		destination: "host0",
		trees: [[["host3", "switch3", "switch0", "host0"]]]
	},
	{
		name: "S2-2",
		packetFilter: "*-type2_2-*",
		source: "host0",
		destination: "host4",
		trees: [[["host0", "switch0", "switch3", "switch2", "switch4", "host4"]]]
	}]
	

