[General]
network = TSN_multipath
sim-time-limit = 100ms
*.macForwardingTableConfigurator.typename = ""
*.*.hasStreamRedundancy = true
*.*.bridging.streamRelay.typename = "StreamRelayLayer"
*.*.bridging.streamCoder.typename = "StreamCoderLayer"
*.streamRedundancyConfigurator.typename = "StreamRedundancyConfigurator"
*.host0.eth[0].bitrate = 1000Mbps
*.switch0.eth[0].bitrate = 1000Mbps
*.switch0.eth[1].bitrate = 1900Mbps
*.switch0.eth[2].bitrate = 2400Mbps
*.switch0.eth[3].bitrate = 2300Mbps
*.switch0.eth[4].bitrate = 1300Mbps
*.switch0.eth[5].bitrate = 2400Mbps
*.switch0.eth[6].bitrate = 1300Mbps
*.switch0.eth[7].bitrate = 2200Mbps
*.switch0.eth[8].bitrate = 2300Mbps
*.switch0.eth[9].bitrate = 1900Mbps
*.switch0.eth[10].bitrate = 2400Mbps
*.switch0.eth[11].bitrate = 1500Mbps
*.host1.eth[0].bitrate = 1000Mbps
*.switch1.eth[0].bitrate = 1000Mbps
*.switch1.eth[1].bitrate = 1900Mbps
*.switch1.eth[2].bitrate = 1900Mbps
*.switch1.eth[3].bitrate = 1300Mbps
*.switch1.eth[4].bitrate = 1900Mbps
*.switch1.eth[5].bitrate = 1700Mbps
*.switch1.eth[6].bitrate = 1200Mbps
*.switch1.eth[7].bitrate = 2200Mbps
*.switch1.eth[8].bitrate = 2000Mbps
*.switch1.eth[9].bitrate = 1600Mbps
*.switch1.eth[10].bitrate = 2000Mbps
*.switch1.eth[11].bitrate = 2400Mbps
*.switch1.eth[12].bitrate = 1300Mbps
*.switch1.eth[13].bitrate = 1500Mbps
*.switch1.eth[14].bitrate = 2400Mbps
*.host2.eth[0].bitrate = 1000Mbps
*.switch2.eth[0].bitrate = 1000Mbps
*.switch2.eth[1].bitrate = 2400Mbps
*.switch2.eth[2].bitrate = 2000Mbps
*.switch2.eth[3].bitrate = 1600Mbps
*.switch2.eth[4].bitrate = 1400Mbps
*.switch2.eth[5].bitrate = 1800Mbps
*.switch2.eth[6].bitrate = 1400Mbps
*.host3.eth[0].bitrate = 1000Mbps
*.switch3.eth[0].bitrate = 1000Mbps
*.switch3.eth[1].bitrate = 2300Mbps
*.switch3.eth[2].bitrate = 1300Mbps
*.switch3.eth[3].bitrate = 1200Mbps
*.switch3.eth[4].bitrate = 1700Mbps
*.switch3.eth[5].bitrate = 2100Mbps
*.host4.eth[0].bitrate = 1000Mbps
*.switch4.eth[0].bitrate = 1000Mbps
*.switch4.eth[1].bitrate = 1300Mbps
*.switch4.eth[2].bitrate = 1900Mbps
*.switch4.eth[3].bitrate = 1600Mbps
*.switch4.eth[4].bitrate = 1200Mbps
*.switch4.eth[5].bitrate = 2400Mbps
*.switch4.eth[6].bitrate = 1800Mbps
*.switch4.eth[7].bitrate = 1900Mbps
*.switch4.eth[8].bitrate = 2100Mbps
*.switch4.eth[9].bitrate = 1800Mbps
*.switch4.eth[10].bitrate = 1500Mbps
*.switch4.eth[11].bitrate = 2000Mbps
*.switch4.eth[12].bitrate = 1400Mbps
*.host5.eth[0].bitrate = 1000Mbps
*.switch5.eth[0].bitrate = 1000Mbps
*.switch5.eth[1].bitrate = 2400Mbps
*.switch5.eth[2].bitrate = 1700Mbps
*.switch5.eth[3].bitrate = 1400Mbps
*.switch5.eth[4].bitrate = 1900Mbps
*.switch5.eth[5].bitrate = 2400Mbps
*.switch5.eth[6].bitrate = 1300Mbps
*.switch5.eth[7].bitrate = 1700Mbps
*.switch5.eth[8].bitrate = 1500Mbps
*.switch5.eth[9].bitrate = 2000Mbps
*.switch5.eth[10].bitrate = 2000Mbps
*.switch5.eth[11].bitrate = 1800Mbps
*.switch5.eth[12].bitrate = 2200Mbps
*.switch5.eth[13].bitrate = 1300Mbps
*.host6.eth[0].bitrate = 1000Mbps
*.switch6.eth[0].bitrate = 1000Mbps
*.switch6.eth[1].bitrate = 1200Mbps
*.switch6.eth[2].bitrate = 2100Mbps
*.switch6.eth[3].bitrate = 1500Mbps
*.switch6.eth[4].bitrate = 1400Mbps
*.switch6.eth[5].bitrate = 2000Mbps
*.switch6.eth[6].bitrate = 1200Mbps
*.switch6.eth[7].bitrate = 2400Mbps
*.switch6.eth[8].bitrate = 1500Mbps
*.host7.eth[0].bitrate = 1000Mbps
*.switch7.eth[0].bitrate = 1000Mbps
*.switch7.eth[1].bitrate = 1300Mbps
*.switch7.eth[2].bitrate = 2200Mbps
*.switch7.eth[3].bitrate = 2000Mbps
*.switch7.eth[4].bitrate = 1200Mbps
*.switch7.eth[5].bitrate = 1500Mbps
*.switch7.eth[6].bitrate = 2400Mbps
*.switch7.eth[7].bitrate = 2100Mbps
*.switch7.eth[8].bitrate = 1400Mbps
*.switch7.eth[9].bitrate = 2200Mbps
*.switch7.eth[10].bitrate = 1300Mbps
*.switch7.eth[11].bitrate = 1400Mbps
*.host8.eth[0].bitrate = 1000Mbps
*.switch8.eth[0].bitrate = 1000Mbps
*.switch8.eth[1].bitrate = 2200Mbps
*.switch8.eth[2].bitrate = 2000Mbps
*.switch8.eth[3].bitrate = 1800Mbps
*.switch8.eth[4].bitrate = 2000Mbps
*.switch8.eth[5].bitrate = 2400Mbps
*.switch8.eth[6].bitrate = 1300Mbps
*.switch8.eth[7].bitrate = 1300Mbps
*.host9.eth[0].bitrate = 1000Mbps
*.switch9.eth[0].bitrate = 1000Mbps
*.switch9.eth[1].bitrate = 2300Mbps
*.switch9.eth[2].bitrate = 1600Mbps
*.switch9.eth[3].bitrate = 1800Mbps
*.switch9.eth[4].bitrate = 1400Mbps
*.switch9.eth[5].bitrate = 1500Mbps
*.host0.numApps = 0
*.host1.numApps = 2
*.host1.app[0].typename = "UdpSinkApp"
*.host1.app[0].io.localPort = 1000
*.host1.app[1].typename = "UdpSourceApp"
*.host1.app[1].io.destAddress = "host6"
*.host1.app[1].source.packetNameFormat = "%M-%m-%c"
*.host1.app[1].source.displayStringTextFormat = "sent %p pk (%l)"
*.host1.app[1].source.packetLength = 18B
*.host1.app[1].source.productionInterval = 1ms
*.host1.app[1].display-name = "type1_2"
*.host1.app[1].io.destPort = 1000
*.host2.numApps = 8
*.host2.app[0].typename = "UdpSinkApp"
*.host2.app[0].io.localPort = 1000
*.host2.app[1].typename = "UdpSinkApp"
*.host2.app[1].io.localPort = 1001
*.host2.app[2].typename = "UdpBasicApp"
*.host2.app[2].destAddresses = "host9"
*.host2.app[2].source.packetNameFormat = "%M-%m-%c"
*.host2.app[2].source.displayStringTextFormat = "sent %p pk (%l)"
*.host2.app[2].messageLength = 20B
*.host2.app[2].sendInterval = 1ms
*.host2.app[2].startTime = 2ms
*.host2.app[2].stopTime = 9ms
*.host2.app[2].display-name = "type2_7"
*.host2.app[2].destPort = 1001
*.host2.app[3].typename = "UdpBasicApp"
*.host2.app[3].destAddresses = "host9"
*.host2.app[3].source.packetNameFormat = "%M-%m-%c"
*.host2.app[3].source.displayStringTextFormat = "sent %p pk (%l)"
*.host2.app[3].messageLength = 20B
*.host2.app[3].sendInterval = 1ms
*.host2.app[3].startTime = 39ms
*.host2.app[3].stopTime = 41ms
*.host2.app[3].display-name = "type2_7"
*.host2.app[3].destPort = 1001
*.host2.app[4].typename = "UdpBasicApp"
*.host2.app[4].destAddresses = "host9"
*.host2.app[4].source.packetNameFormat = "%M-%m-%c"
*.host2.app[4].source.displayStringTextFormat = "sent %p pk (%l)"
*.host2.app[4].messageLength = 20B
*.host2.app[4].sendInterval = 1ms
*.host2.app[4].startTime = 45ms
*.host2.app[4].stopTime = 48ms
*.host2.app[4].display-name = "type2_7"
*.host2.app[4].destPort = 1001
*.host2.app[5].typename = "UdpBasicApp"
*.host2.app[5].destAddresses = "host9"
*.host2.app[5].source.packetNameFormat = "%M-%m-%c"
*.host2.app[5].source.displayStringTextFormat = "sent %p pk (%l)"
*.host2.app[5].messageLength = 20B
*.host2.app[5].sendInterval = 1ms
*.host2.app[5].startTime = 50ms
*.host2.app[5].stopTime = 51ms
*.host2.app[5].display-name = "type2_7"
*.host2.app[5].destPort = 1001
*.host2.app[6].typename = "UdpBasicApp"
*.host2.app[6].destAddresses = "host9"
*.host2.app[6].source.packetNameFormat = "%M-%m-%c"
*.host2.app[6].source.displayStringTextFormat = "sent %p pk (%l)"
*.host2.app[6].messageLength = 20B
*.host2.app[6].sendInterval = 1ms
*.host2.app[6].startTime = 55ms
*.host2.app[6].stopTime = 60ms
*.host2.app[6].display-name = "type2_7"
*.host2.app[6].destPort = 1001
*.host2.app[7].typename = "UdpBasicApp"
*.host2.app[7].destAddresses = "host9"
*.host2.app[7].source.packetNameFormat = "%M-%m-%c"
*.host2.app[7].source.displayStringTextFormat = "sent %p pk (%l)"
*.host2.app[7].messageLength = 20B
*.host2.app[7].sendInterval = 1ms
*.host2.app[7].startTime = 80ms
*.host2.app[7].stopTime = 100ms
*.host2.app[7].display-name = "type2_7"
*.host2.app[7].destPort = 1001
*.host3.numApps = 18
*.host3.app[0].typename = "UdpSourceApp"
*.host3.app[0].io.destAddress = "host8"
*.host3.app[0].source.packetNameFormat = "%M-%m-%c"
*.host3.app[0].source.displayStringTextFormat = "sent %p pk (%l)"
*.host3.app[0].source.packetLength = 13B
*.host3.app[0].source.productionInterval = 1ms
*.host3.app[0].display-name = "type1_1"
*.host3.app[0].io.destPort = 1000
*.host3.app[1].typename = "UdpSinkApp"
*.host3.app[1].io.localPort = 1000
*.host3.app[2].typename = "UdpBasicApp"
*.host3.app[2].destAddresses = "host7"
*.host3.app[2].source.packetNameFormat = "%M-%m-%c"
*.host3.app[2].source.displayStringTextFormat = "sent %p pk (%l)"
*.host3.app[2].messageLength = 22B
*.host3.app[2].sendInterval = 1ms
*.host3.app[2].startTime = 1ms
*.host3.app[2].stopTime = 5ms
*.host3.app[2].display-name = "type2_4"
*.host3.app[2].destPort = 1001
*.host3.app[3].typename = "UdpBasicApp"
*.host3.app[3].destAddresses = "host7"
*.host3.app[3].source.packetNameFormat = "%M-%m-%c"
*.host3.app[3].source.displayStringTextFormat = "sent %p pk (%l)"
*.host3.app[3].messageLength = 22B
*.host3.app[3].sendInterval = 1ms
*.host3.app[3].startTime = 11ms
*.host3.app[3].stopTime = 13ms
*.host3.app[3].display-name = "type2_4"
*.host3.app[3].destPort = 1001
*.host3.app[4].typename = "UdpBasicApp"
*.host3.app[4].destAddresses = "host7"
*.host3.app[4].source.packetNameFormat = "%M-%m-%c"
*.host3.app[4].source.displayStringTextFormat = "sent %p pk (%l)"
*.host3.app[4].messageLength = 22B
*.host3.app[4].sendInterval = 1ms
*.host3.app[4].startTime = 14ms
*.host3.app[4].stopTime = 28ms
*.host3.app[4].display-name = "type2_4"
*.host3.app[4].destPort = 1001
*.host3.app[5].typename = "UdpBasicApp"
*.host3.app[5].destAddresses = "host7"
*.host3.app[5].source.packetNameFormat = "%M-%m-%c"
*.host3.app[5].source.displayStringTextFormat = "sent %p pk (%l)"
*.host3.app[5].messageLength = 22B
*.host3.app[5].sendInterval = 1ms
*.host3.app[5].startTime = 29ms
*.host3.app[5].stopTime = 33ms
*.host3.app[5].display-name = "type2_4"
*.host3.app[5].destPort = 1001
*.host3.app[6].typename = "UdpBasicApp"
*.host3.app[6].destAddresses = "host7"
*.host3.app[6].source.packetNameFormat = "%M-%m-%c"
*.host3.app[6].source.displayStringTextFormat = "sent %p pk (%l)"
*.host3.app[6].messageLength = 22B
*.host3.app[6].sendInterval = 1ms
*.host3.app[6].startTime = 40ms
*.host3.app[6].stopTime = 51ms
*.host3.app[6].display-name = "type2_4"
*.host3.app[6].destPort = 1001
*.host3.app[7].typename = "UdpBasicApp"
*.host3.app[7].destAddresses = "host7"
*.host3.app[7].source.packetNameFormat = "%M-%m-%c"
*.host3.app[7].source.displayStringTextFormat = "sent %p pk (%l)"
*.host3.app[7].messageLength = 22B
*.host3.app[7].sendInterval = 1ms
*.host3.app[7].startTime = 52ms
*.host3.app[7].stopTime = 73ms
*.host3.app[7].display-name = "type2_4"
*.host3.app[7].destPort = 1001
*.host3.app[8].typename = "UdpBasicApp"
*.host3.app[8].destAddresses = "host7"
*.host3.app[8].source.packetNameFormat = "%M-%m-%c"
*.host3.app[8].source.displayStringTextFormat = "sent %p pk (%l)"
*.host3.app[8].messageLength = 22B
*.host3.app[8].sendInterval = 1ms
*.host3.app[8].startTime = 76ms
*.host3.app[8].stopTime = 82ms
*.host3.app[8].display-name = "type2_4"
*.host3.app[8].destPort = 1001
*.host3.app[9].typename = "UdpBasicApp"
*.host3.app[9].destAddresses = "host7"
*.host3.app[9].source.packetNameFormat = "%M-%m-%c"
*.host3.app[9].source.displayStringTextFormat = "sent %p pk (%l)"
*.host3.app[9].messageLength = 22B
*.host3.app[9].sendInterval = 1ms
*.host3.app[9].startTime = 90ms
*.host3.app[9].stopTime = 100ms
*.host3.app[9].display-name = "type2_4"
*.host3.app[9].destPort = 1001
*.host3.app[10].typename = "UdpBasicApp"
*.host3.app[10].destAddresses = "host6"
*.host3.app[10].source.packetNameFormat = "%M-%m-%c"
*.host3.app[10].source.displayStringTextFormat = "sent %p pk (%l)"
*.host3.app[10].messageLength = 19B
*.host3.app[10].sendInterval = 1ms
*.host3.app[10].startTime = 2ms
*.host3.app[10].stopTime = 8ms
*.host3.app[10].display-name = "type2_8"
*.host3.app[10].destPort = 1001
*.host3.app[11].typename = "UdpBasicApp"
*.host3.app[11].destAddresses = "host6"
*.host3.app[11].source.packetNameFormat = "%M-%m-%c"
*.host3.app[11].source.displayStringTextFormat = "sent %p pk (%l)"
*.host3.app[11].messageLength = 19B
*.host3.app[11].sendInterval = 1ms
*.host3.app[11].startTime = 10ms
*.host3.app[11].stopTime = 11ms
*.host3.app[11].display-name = "type2_8"
*.host3.app[11].destPort = 1001
*.host3.app[12].typename = "UdpBasicApp"
*.host3.app[12].destAddresses = "host6"
*.host3.app[12].source.packetNameFormat = "%M-%m-%c"
*.host3.app[12].source.displayStringTextFormat = "sent %p pk (%l)"
*.host3.app[12].messageLength = 19B
*.host3.app[12].sendInterval = 1ms
*.host3.app[12].startTime = 14ms
*.host3.app[12].stopTime = 27ms
*.host3.app[12].display-name = "type2_8"
*.host3.app[12].destPort = 1001
*.host3.app[13].typename = "UdpBasicApp"
*.host3.app[13].destAddresses = "host6"
*.host3.app[13].source.packetNameFormat = "%M-%m-%c"
*.host3.app[13].source.displayStringTextFormat = "sent %p pk (%l)"
*.host3.app[13].messageLength = 19B
*.host3.app[13].sendInterval = 1ms
*.host3.app[13].startTime = 40ms
*.host3.app[13].stopTime = 43ms
*.host3.app[13].display-name = "type2_8"
*.host3.app[13].destPort = 1001
*.host3.app[14].typename = "UdpBasicApp"
*.host3.app[14].destAddresses = "host6"
*.host3.app[14].source.packetNameFormat = "%M-%m-%c"
*.host3.app[14].source.displayStringTextFormat = "sent %p pk (%l)"
*.host3.app[14].messageLength = 19B
*.host3.app[14].sendInterval = 1ms
*.host3.app[14].startTime = 47ms
*.host3.app[14].stopTime = 49ms
*.host3.app[14].display-name = "type2_8"
*.host3.app[14].destPort = 1001
*.host3.app[15].typename = "UdpBasicApp"
*.host3.app[15].destAddresses = "host6"
*.host3.app[15].source.packetNameFormat = "%M-%m-%c"
*.host3.app[15].source.displayStringTextFormat = "sent %p pk (%l)"
*.host3.app[15].messageLength = 19B
*.host3.app[15].sendInterval = 1ms
*.host3.app[15].startTime = 52ms
*.host3.app[15].stopTime = 57ms
*.host3.app[15].display-name = "type2_8"
*.host3.app[15].destPort = 1001
*.host3.app[16].typename = "UdpBasicApp"
*.host3.app[16].destAddresses = "host6"
*.host3.app[16].source.packetNameFormat = "%M-%m-%c"
*.host3.app[16].source.displayStringTextFormat = "sent %p pk (%l)"
*.host3.app[16].messageLength = 19B
*.host3.app[16].sendInterval = 1ms
*.host3.app[16].startTime = 66ms
*.host3.app[16].stopTime = 71ms
*.host3.app[16].display-name = "type2_8"
*.host3.app[16].destPort = 1001
*.host3.app[17].typename = "UdpBasicApp"
*.host3.app[17].destAddresses = "host6"
*.host3.app[17].source.packetNameFormat = "%M-%m-%c"
*.host3.app[17].source.displayStringTextFormat = "sent %p pk (%l)"
*.host3.app[17].messageLength = 19B
*.host3.app[17].sendInterval = 1ms
*.host3.app[17].startTime = 91ms
*.host3.app[17].stopTime = 100ms
*.host3.app[17].display-name = "type2_8"
*.host3.app[17].destPort = 1001
*.host4.numApps = 22
*.host4.app[0].typename = "UdpSourceApp"
*.host4.app[0].io.destAddress = "host9"
*.host4.app[0].source.packetNameFormat = "%M-%m-%c"
*.host4.app[0].source.displayStringTextFormat = "sent %p pk (%l)"
*.host4.app[0].source.packetLength = 17B
*.host4.app[0].source.productionInterval = 1ms
*.host4.app[0].display-name = "type1_3"
*.host4.app[0].io.destPort = 1000
*.host4.app[1].typename = "UdpBasicApp"
*.host4.app[1].destAddresses = "host5"
*.host4.app[1].source.packetNameFormat = "%M-%m-%c"
*.host4.app[1].source.displayStringTextFormat = "sent %p pk (%l)"
*.host4.app[1].messageLength = 14B
*.host4.app[1].sendInterval = 1ms
*.host4.app[1].startTime = 19ms
*.host4.app[1].stopTime = 34ms
*.host4.app[1].display-name = "type2_1"
*.host4.app[1].destPort = 1000
*.host4.app[2].typename = "UdpBasicApp"
*.host4.app[2].destAddresses = "host5"
*.host4.app[2].source.packetNameFormat = "%M-%m-%c"
*.host4.app[2].source.displayStringTextFormat = "sent %p pk (%l)"
*.host4.app[2].messageLength = 14B
*.host4.app[2].sendInterval = 1ms
*.host4.app[2].startTime = 40ms
*.host4.app[2].stopTime = 51ms
*.host4.app[2].display-name = "type2_1"
*.host4.app[2].destPort = 1000
*.host4.app[3].typename = "UdpBasicApp"
*.host4.app[3].destAddresses = "host5"
*.host4.app[3].source.packetNameFormat = "%M-%m-%c"
*.host4.app[3].source.displayStringTextFormat = "sent %p pk (%l)"
*.host4.app[3].messageLength = 14B
*.host4.app[3].sendInterval = 1ms
*.host4.app[3].startTime = 56ms
*.host4.app[3].stopTime = 64ms
*.host4.app[3].display-name = "type2_1"
*.host4.app[3].destPort = 1000
*.host4.app[4].typename = "UdpBasicApp"
*.host4.app[4].destAddresses = "host5"
*.host4.app[4].source.packetNameFormat = "%M-%m-%c"
*.host4.app[4].source.displayStringTextFormat = "sent %p pk (%l)"
*.host4.app[4].messageLength = 14B
*.host4.app[4].sendInterval = 1ms
*.host4.app[4].startTime = 70ms
*.host4.app[4].stopTime = 74ms
*.host4.app[4].display-name = "type2_1"
*.host4.app[4].destPort = 1000
*.host4.app[5].typename = "UdpBasicApp"
*.host4.app[5].destAddresses = "host5"
*.host4.app[5].source.packetNameFormat = "%M-%m-%c"
*.host4.app[5].source.displayStringTextFormat = "sent %p pk (%l)"
*.host4.app[5].messageLength = 14B
*.host4.app[5].sendInterval = 1ms
*.host4.app[5].startTime = 76ms
*.host4.app[5].stopTime = 97ms
*.host4.app[5].display-name = "type2_1"
*.host4.app[5].destPort = 1000
*.host4.app[6].typename = "UdpBasicApp"
*.host4.app[6].destAddresses = "host5"
*.host4.app[6].source.packetNameFormat = "%M-%m-%c"
*.host4.app[6].source.displayStringTextFormat = "sent %p pk (%l)"
*.host4.app[6].messageLength = 14B
*.host4.app[6].sendInterval = 1ms
*.host4.app[6].startTime = 98ms
*.host4.app[6].stopTime = 100ms
*.host4.app[6].display-name = "type2_1"
*.host4.app[6].destPort = 1000
*.host4.app[7].typename = "UdpBasicApp"
*.host4.app[7].destAddresses = "host3"
*.host4.app[7].source.packetNameFormat = "%M-%m-%c"
*.host4.app[7].source.displayStringTextFormat = "sent %p pk (%l)"
*.host4.app[7].messageLength = 20B
*.host4.app[7].sendInterval = 1ms
*.host4.app[7].startTime = 6ms
*.host4.app[7].stopTime = 14ms
*.host4.app[7].display-name = "type2_3"
*.host4.app[7].destPort = 1000
*.host4.app[8].typename = "UdpBasicApp"
*.host4.app[8].destAddresses = "host3"
*.host4.app[8].source.packetNameFormat = "%M-%m-%c"
*.host4.app[8].source.displayStringTextFormat = "sent %p pk (%l)"
*.host4.app[8].messageLength = 20B
*.host4.app[8].sendInterval = 1ms
*.host4.app[8].startTime = 34ms
*.host4.app[8].stopTime = 35ms
*.host4.app[8].display-name = "type2_3"
*.host4.app[8].destPort = 1000
*.host4.app[9].typename = "UdpBasicApp"
*.host4.app[9].destAddresses = "host3"
*.host4.app[9].source.packetNameFormat = "%M-%m-%c"
*.host4.app[9].source.displayStringTextFormat = "sent %p pk (%l)"
*.host4.app[9].messageLength = 20B
*.host4.app[9].sendInterval = 1ms
*.host4.app[9].startTime = 40ms
*.host4.app[9].stopTime = 52ms
*.host4.app[9].display-name = "type2_3"
*.host4.app[9].destPort = 1000
*.host4.app[10].typename = "UdpBasicApp"
*.host4.app[10].destAddresses = "host3"
*.host4.app[10].source.packetNameFormat = "%M-%m-%c"
*.host4.app[10].source.displayStringTextFormat = "sent %p pk (%l)"
*.host4.app[10].messageLength = 20B
*.host4.app[10].sendInterval = 1ms
*.host4.app[10].startTime = 57ms
*.host4.app[10].stopTime = 63ms
*.host4.app[10].display-name = "type2_3"
*.host4.app[10].destPort = 1000
*.host4.app[11].typename = "UdpBasicApp"
*.host4.app[11].destAddresses = "host3"
*.host4.app[11].source.packetNameFormat = "%M-%m-%c"
*.host4.app[11].source.displayStringTextFormat = "sent %p pk (%l)"
*.host4.app[11].messageLength = 20B
*.host4.app[11].sendInterval = 1ms
*.host4.app[11].startTime = 65ms
*.host4.app[11].stopTime = 75ms
*.host4.app[11].display-name = "type2_3"
*.host4.app[11].destPort = 1000
*.host4.app[12].typename = "UdpBasicApp"
*.host4.app[12].destAddresses = "host3"
*.host4.app[12].source.packetNameFormat = "%M-%m-%c"
*.host4.app[12].source.displayStringTextFormat = "sent %p pk (%l)"
*.host4.app[12].messageLength = 20B
*.host4.app[12].sendInterval = 1ms
*.host4.app[12].startTime = 80ms
*.host4.app[12].stopTime = 88ms
*.host4.app[12].display-name = "type2_3"
*.host4.app[12].destPort = 1000
*.host4.app[13].typename = "UdpBasicApp"
*.host4.app[13].destAddresses = "host3"
*.host4.app[13].source.packetNameFormat = "%M-%m-%c"
*.host4.app[13].source.displayStringTextFormat = "sent %p pk (%l)"
*.host4.app[13].messageLength = 20B
*.host4.app[13].sendInterval = 1ms
*.host4.app[13].startTime = 93ms
*.host4.app[13].stopTime = 95ms
*.host4.app[13].display-name = "type2_3"
*.host4.app[13].destPort = 1000
*.host4.app[14].typename = "UdpBasicApp"
*.host4.app[14].destAddresses = "host3"
*.host4.app[14].source.packetNameFormat = "%M-%m-%c"
*.host4.app[14].source.displayStringTextFormat = "sent %p pk (%l)"
*.host4.app[14].messageLength = 20B
*.host4.app[14].sendInterval = 1ms
*.host4.app[14].startTime = 97ms
*.host4.app[14].stopTime = 98ms
*.host4.app[14].display-name = "type2_3"
*.host4.app[14].destPort = 1000
*.host4.app[15].typename = "UdpSinkApp"
*.host4.app[15].io.localPort = 1000
*.host4.app[16].typename = "UdpBasicApp"
*.host4.app[16].destAddresses = "host2"
*.host4.app[16].source.packetNameFormat = "%M-%m-%c"
*.host4.app[16].source.displayStringTextFormat = "sent %p pk (%l)"
*.host4.app[16].messageLength = 20B
*.host4.app[16].sendInterval = 1ms
*.host4.app[16].startTime = 2ms
*.host4.app[16].stopTime = 4ms
*.host4.app[16].display-name = "type2_6"
*.host4.app[16].destPort = 1001
*.host4.app[17].typename = "UdpBasicApp"
*.host4.app[17].destAddresses = "host2"
*.host4.app[17].source.packetNameFormat = "%M-%m-%c"
*.host4.app[17].source.displayStringTextFormat = "sent %p pk (%l)"
*.host4.app[17].messageLength = 20B
*.host4.app[17].sendInterval = 1ms
*.host4.app[17].startTime = 12ms
*.host4.app[17].stopTime = 40ms
*.host4.app[17].display-name = "type2_6"
*.host4.app[17].destPort = 1001
*.host4.app[18].typename = "UdpBasicApp"
*.host4.app[18].destAddresses = "host2"
*.host4.app[18].source.packetNameFormat = "%M-%m-%c"
*.host4.app[18].source.displayStringTextFormat = "sent %p pk (%l)"
*.host4.app[18].messageLength = 20B
*.host4.app[18].sendInterval = 1ms
*.host4.app[18].startTime = 43ms
*.host4.app[18].stopTime = 59ms
*.host4.app[18].display-name = "type2_6"
*.host4.app[18].destPort = 1001
*.host4.app[19].typename = "UdpBasicApp"
*.host4.app[19].destAddresses = "host2"
*.host4.app[19].source.packetNameFormat = "%M-%m-%c"
*.host4.app[19].source.displayStringTextFormat = "sent %p pk (%l)"
*.host4.app[19].messageLength = 20B
*.host4.app[19].sendInterval = 1ms
*.host4.app[19].startTime = 60ms
*.host4.app[19].stopTime = 69ms
*.host4.app[19].display-name = "type2_6"
*.host4.app[19].destPort = 1001
*.host4.app[20].typename = "UdpBasicApp"
*.host4.app[20].destAddresses = "host2"
*.host4.app[20].source.packetNameFormat = "%M-%m-%c"
*.host4.app[20].source.displayStringTextFormat = "sent %p pk (%l)"
*.host4.app[20].messageLength = 20B
*.host4.app[20].sendInterval = 1ms
*.host4.app[20].startTime = 77ms
*.host4.app[20].stopTime = 93ms
*.host4.app[20].display-name = "type2_6"
*.host4.app[20].destPort = 1001
*.host4.app[21].typename = "UdpSinkApp"
*.host4.app[21].io.localPort = 1001
*.host5.numApps = 2
*.host5.app[0].typename = "UdpSourceApp"
*.host5.app[0].io.destAddress = "host8"
*.host5.app[0].source.packetNameFormat = "%M-%m-%c"
*.host5.app[0].source.displayStringTextFormat = "sent %p pk (%l)"
*.host5.app[0].source.packetLength = 16B
*.host5.app[0].source.productionInterval = 1ms
*.host5.app[0].display-name = "type1_4"
*.host5.app[0].io.destPort = 1001
*.host5.app[1].typename = "UdpSinkApp"
*.host5.app[1].io.localPort = 1000
*.host6.numApps = 15
*.host6.app[0].typename = "UdpSinkApp"
*.host6.app[0].io.localPort = 1000
*.host6.app[1].typename = "UdpBasicApp"
*.host6.app[1].destAddresses = "host2"
*.host6.app[1].source.packetNameFormat = "%M-%m-%c"
*.host6.app[1].source.displayStringTextFormat = "sent %p pk (%l)"
*.host6.app[1].messageLength = 13B
*.host6.app[1].sendInterval = 1ms
*.host6.app[1].startTime = 4ms
*.host6.app[1].stopTime = 15ms
*.host6.app[1].display-name = "type2_2"
*.host6.app[1].destPort = 1000
*.host6.app[2].typename = "UdpBasicApp"
*.host6.app[2].destAddresses = "host2"
*.host6.app[2].source.packetNameFormat = "%M-%m-%c"
*.host6.app[2].source.displayStringTextFormat = "sent %p pk (%l)"
*.host6.app[2].messageLength = 13B
*.host6.app[2].sendInterval = 1ms
*.host6.app[2].startTime = 17ms
*.host6.app[2].stopTime = 34ms
*.host6.app[2].display-name = "type2_2"
*.host6.app[2].destPort = 1000
*.host6.app[3].typename = "UdpBasicApp"
*.host6.app[3].destAddresses = "host2"
*.host6.app[3].source.packetNameFormat = "%M-%m-%c"
*.host6.app[3].source.displayStringTextFormat = "sent %p pk (%l)"
*.host6.app[3].messageLength = 13B
*.host6.app[3].sendInterval = 1ms
*.host6.app[3].startTime = 35ms
*.host6.app[3].stopTime = 37ms
*.host6.app[3].display-name = "type2_2"
*.host6.app[3].destPort = 1000
*.host6.app[4].typename = "UdpBasicApp"
*.host6.app[4].destAddresses = "host2"
*.host6.app[4].source.packetNameFormat = "%M-%m-%c"
*.host6.app[4].source.displayStringTextFormat = "sent %p pk (%l)"
*.host6.app[4].messageLength = 13B
*.host6.app[4].sendInterval = 1ms
*.host6.app[4].startTime = 57ms
*.host6.app[4].stopTime = 63ms
*.host6.app[4].display-name = "type2_2"
*.host6.app[4].destPort = 1000
*.host6.app[5].typename = "UdpBasicApp"
*.host6.app[5].destAddresses = "host2"
*.host6.app[5].source.packetNameFormat = "%M-%m-%c"
*.host6.app[5].source.displayStringTextFormat = "sent %p pk (%l)"
*.host6.app[5].messageLength = 13B
*.host6.app[5].sendInterval = 1ms
*.host6.app[5].startTime = 80ms
*.host6.app[5].stopTime = 100ms
*.host6.app[5].display-name = "type2_2"
*.host6.app[5].destPort = 1000
*.host6.app[6].typename = "UdpBasicApp"
*.host6.app[6].destAddresses = "host4"
*.host6.app[6].source.packetNameFormat = "%M-%m-%c"
*.host6.app[6].source.displayStringTextFormat = "sent %p pk (%l)"
*.host6.app[6].messageLength = 21B
*.host6.app[6].sendInterval = 1ms
*.host6.app[6].startTime = 1ms
*.host6.app[6].stopTime = 8ms
*.host6.app[6].display-name = "type2_5"
*.host6.app[6].destPort = 1000
*.host6.app[7].typename = "UdpBasicApp"
*.host6.app[7].destAddresses = "host4"
*.host6.app[7].source.packetNameFormat = "%M-%m-%c"
*.host6.app[7].source.displayStringTextFormat = "sent %p pk (%l)"
*.host6.app[7].messageLength = 21B
*.host6.app[7].sendInterval = 1ms
*.host6.app[7].startTime = 9ms
*.host6.app[7].stopTime = 17ms
*.host6.app[7].display-name = "type2_5"
*.host6.app[7].destPort = 1000
*.host6.app[8].typename = "UdpBasicApp"
*.host6.app[8].destAddresses = "host4"
*.host6.app[8].source.packetNameFormat = "%M-%m-%c"
*.host6.app[8].source.displayStringTextFormat = "sent %p pk (%l)"
*.host6.app[8].messageLength = 21B
*.host6.app[8].sendInterval = 1ms
*.host6.app[8].startTime = 20ms
*.host6.app[8].stopTime = 22ms
*.host6.app[8].display-name = "type2_5"
*.host6.app[8].destPort = 1000
*.host6.app[9].typename = "UdpBasicApp"
*.host6.app[9].destAddresses = "host4"
*.host6.app[9].source.packetNameFormat = "%M-%m-%c"
*.host6.app[9].source.displayStringTextFormat = "sent %p pk (%l)"
*.host6.app[9].messageLength = 21B
*.host6.app[9].sendInterval = 1ms
*.host6.app[9].startTime = 23ms
*.host6.app[9].stopTime = 28ms
*.host6.app[9].display-name = "type2_5"
*.host6.app[9].destPort = 1000
*.host6.app[10].typename = "UdpBasicApp"
*.host6.app[10].destAddresses = "host4"
*.host6.app[10].source.packetNameFormat = "%M-%m-%c"
*.host6.app[10].source.displayStringTextFormat = "sent %p pk (%l)"
*.host6.app[10].messageLength = 21B
*.host6.app[10].sendInterval = 1ms
*.host6.app[10].startTime = 40ms
*.host6.app[10].stopTime = 54ms
*.host6.app[10].display-name = "type2_5"
*.host6.app[10].destPort = 1000
*.host6.app[11].typename = "UdpBasicApp"
*.host6.app[11].destAddresses = "host4"
*.host6.app[11].source.packetNameFormat = "%M-%m-%c"
*.host6.app[11].source.displayStringTextFormat = "sent %p pk (%l)"
*.host6.app[11].messageLength = 21B
*.host6.app[11].sendInterval = 1ms
*.host6.app[11].startTime = 72ms
*.host6.app[11].stopTime = 78ms
*.host6.app[11].display-name = "type2_5"
*.host6.app[11].destPort = 1000
*.host6.app[12].typename = "UdpBasicApp"
*.host6.app[12].destAddresses = "host4"
*.host6.app[12].source.packetNameFormat = "%M-%m-%c"
*.host6.app[12].source.displayStringTextFormat = "sent %p pk (%l)"
*.host6.app[12].messageLength = 21B
*.host6.app[12].sendInterval = 1ms
*.host6.app[12].startTime = 85ms
*.host6.app[12].stopTime = 96ms
*.host6.app[12].display-name = "type2_5"
*.host6.app[12].destPort = 1000
*.host6.app[13].typename = "UdpBasicApp"
*.host6.app[13].destAddresses = "host4"
*.host6.app[13].source.packetNameFormat = "%M-%m-%c"
*.host6.app[13].source.displayStringTextFormat = "sent %p pk (%l)"
*.host6.app[13].messageLength = 21B
*.host6.app[13].sendInterval = 1ms
*.host6.app[13].startTime = 98ms
*.host6.app[13].stopTime = 100ms
*.host6.app[13].display-name = "type2_5"
*.host6.app[13].destPort = 1000
*.host6.app[14].typename = "UdpSinkApp"
*.host6.app[14].io.localPort = 1001
*.host7.numApps = 2
*.host7.app[0].typename = "UdpSinkApp"
*.host7.app[0].io.localPort = 1000
*.host7.app[1].typename = "UdpSinkApp"
*.host7.app[1].io.localPort = 1001
*.host8.numApps = 13
*.host8.app[0].typename = "UdpSinkApp"
*.host8.app[0].io.localPort = 1000
*.host8.app[1].typename = "UdpSinkApp"
*.host8.app[1].io.localPort = 1001
*.host8.app[2].typename = "UdpBasicApp"
*.host8.app[2].destAddresses = "host7"
*.host8.app[2].source.packetNameFormat = "%M-%m-%c"
*.host8.app[2].source.displayStringTextFormat = "sent %p pk (%l)"
*.host8.app[2].messageLength = 17B
*.host8.app[2].sendInterval = 1ms
*.host8.app[2].startTime = 0ms
*.host8.app[2].stopTime = 2ms
*.host8.app[2].display-name = "type2_0"
*.host8.app[2].destPort = 1000
*.host8.app[3].typename = "UdpBasicApp"
*.host8.app[3].destAddresses = "host7"
*.host8.app[3].source.packetNameFormat = "%M-%m-%c"
*.host8.app[3].source.displayStringTextFormat = "sent %p pk (%l)"
*.host8.app[3].messageLength = 17B
*.host8.app[3].sendInterval = 1ms
*.host8.app[3].startTime = 16ms
*.host8.app[3].stopTime = 20ms
*.host8.app[3].display-name = "type2_0"
*.host8.app[3].destPort = 1000
*.host8.app[4].typename = "UdpBasicApp"
*.host8.app[4].destAddresses = "host7"
*.host8.app[4].source.packetNameFormat = "%M-%m-%c"
*.host8.app[4].source.displayStringTextFormat = "sent %p pk (%l)"
*.host8.app[4].messageLength = 17B
*.host8.app[4].sendInterval = 1ms
*.host8.app[4].startTime = 25ms
*.host8.app[4].stopTime = 29ms
*.host8.app[4].display-name = "type2_0"
*.host8.app[4].destPort = 1000
*.host8.app[5].typename = "UdpBasicApp"