[General]
network = TSN_multipath
sim-time-limit = 10ms
*.macForwardingTableConfigurator.typename = ""
*.*.hasStreamRedundancy = true
*.*.bridging.streamRelay.typename = "StreamRelayLayer"
*.*.bridging.streamCoder.typename = "StreamCoderLayer"
*.streamRedundancyConfigurator.typename = "StreamRedundancyConfigurator"
*.host0.eth[0].bitrate = 1000Mbps
*.switch0.eth[0].bitrate = 1000Mbps
*.switch0.eth[1].bitrate = 1900Mbps
*.switch0.eth[2].bitrate = 2100Mbps
*.switch0.eth[3].bitrate = 1500Mbps
*.switch0.eth[4].bitrate = 1600Mbps
*.switch0.eth[5].bitrate = 2100Mbps
*.switch0.eth[6].bitrate = 1300Mbps
*.switch0.eth[7].bitrate = 1900Mbps
*.switch0.eth[8].bitrate = 1800Mbps
*.switch0.eth[9].bitrate = 1200Mbps
*.host1.eth[0].bitrate = 1000Mbps
*.switch1.eth[0].bitrate = 1000Mbps
*.switch1.eth[1].bitrate = 1800Mbps
*.switch1.eth[2].bitrate = 2400Mbps
*.switch1.eth[3].bitrate = 2400Mbps
*.switch1.eth[4].bitrate = 1900Mbps
*.switch1.eth[5].bitrate = 1200Mbps
*.switch1.eth[6].bitrate = 1300Mbps
*.switch1.eth[7].bitrate = 1800Mbps
*.switch1.eth[8].bitrate = 2100Mbps
*.switch1.eth[9].bitrate = 1200Mbps
*.host2.eth[0].bitrate = 1000Mbps
*.switch2.eth[0].bitrate = 1000Mbps
*.switch2.eth[1].bitrate = 1900Mbps
*.switch2.eth[2].bitrate = 1800Mbps
*.switch2.eth[3].bitrate = 1300Mbps
*.switch2.eth[4].bitrate = 1800Mbps
*.switch2.eth[5].bitrate = 2000Mbps
*.host3.eth[0].bitrate = 1000Mbps
*.switch3.eth[0].bitrate = 1000Mbps
*.switch3.eth[1].bitrate = 2400Mbps
*.switch3.eth[2].bitrate = 2400Mbps
*.switch3.eth[3].bitrate = 2200Mbps
*.switch3.eth[4].bitrate = 1900Mbps
*.host4.eth[0].bitrate = 1000Mbps
*.switch4.eth[0].bitrate = 1000Mbps
*.switch4.eth[1].bitrate = 2100Mbps
*.switch4.eth[2].bitrate = 2400Mbps
*.switch4.eth[3].bitrate = 2400Mbps
*.switch4.eth[4].bitrate = 1900Mbps
*.switch4.eth[5].bitrate = 2100Mbps
*.switch4.eth[6].bitrate = 1600Mbps
*.switch4.eth[7].bitrate = 1900Mbps
*.switch4.eth[8].bitrate = 1900Mbps
*.switch4.eth[9].bitrate = 2000Mbps
*.switch4.eth[10].bitrate = 2400Mbps
*.switch4.eth[11].bitrate = 2000Mbps
*.switch4.eth[12].bitrate = 1600Mbps
*.switch4.eth[13].bitrate = 2200Mbps
*.host5.eth[0].bitrate = 1000Mbps
*.switch5.eth[0].bitrate = 1000Mbps
*.switch5.eth[1].bitrate = 1500Mbps
*.switch5.eth[2].bitrate = 1900Mbps
*.switch5.eth[3].bitrate = 1600Mbps
*.switch5.eth[4].bitrate = 1800Mbps
*.switch5.eth[5].bitrate = 2000Mbps
*.switch5.eth[6].bitrate = 1600Mbps
*.switch5.eth[7].bitrate = 1200Mbps
*.switch5.eth[8].bitrate = 1400Mbps
*.switch5.eth[9].bitrate = 1900Mbps
*.host6.eth[0].bitrate = 1000Mbps
*.switch6.eth[0].bitrate = 1000Mbps
*.switch6.eth[1].bitrate = 1600Mbps
*.switch6.eth[2].bitrate = 1200Mbps
*.switch6.eth[3].bitrate = 1900Mbps
*.switch6.eth[4].bitrate = 1200Mbps
*.switch6.eth[5].bitrate = 1900Mbps
*.switch6.eth[6].bitrate = 1600Mbps
*.switch6.eth[7].bitrate = 1400Mbps
*.switch6.eth[8].bitrate = 1700Mbps
*.switch6.eth[9].bitrate = 1300Mbps
*.host7.eth[0].bitrate = 1000Mbps
*.switch7.eth[0].bitrate = 1000Mbps
*.switch7.eth[1].bitrate = 2100Mbps
*.switch7.eth[2].bitrate = 1300Mbps
*.switch7.eth[3].bitrate = 1900Mbps
*.switch7.eth[4].bitrate = 1600Mbps
*.switch7.eth[5].bitrate = 1700Mbps
*.switch7.eth[6].bitrate = 1800Mbps
*.switch7.eth[7].bitrate = 1300Mbps
*.switch7.eth[8].bitrate = 1600Mbps
*.switch7.eth[9].bitrate = 1300Mbps
*.switch7.eth[10].bitrate = 1500Mbps
*.switch7.eth[11].bitrate = 1800Mbps
*.host8.eth[0].bitrate = 1000Mbps
*.switch8.eth[0].bitrate = 1000Mbps
*.switch8.eth[1].bitrate = 2000Mbps
*.switch8.eth[2].bitrate = 1600Mbps
*.switch8.eth[3].bitrate = 1200Mbps
*.switch8.eth[4].bitrate = 1500Mbps
*.host9.eth[0].bitrate = 1000Mbps
*.switch9.eth[0].bitrate = 1000Mbps
*.switch9.eth[1].bitrate = 1800Mbps
*.switch9.eth[2].bitrate = 2200Mbps
*.switch9.eth[3].bitrate = 2400Mbps
*.switch9.eth[4].bitrate = 1200Mbps
*.switch9.eth[5].bitrate = 1300Mbps
*.switch9.eth[6].bitrate = 2000Mbps
*.switch9.eth[7].bitrate = 2200Mbps
*.switch9.eth[8].bitrate = 1900Mbps
*.switch9.eth[9].bitrate = 1800Mbps
*.host7.numApps = 1
*.host7.app[0].typename = "UdpSourceApp"
*.host7.app[0].io.destAddress = "host9"
*.host7.app[0].source.packetNameFormat = "%M-%m-%c"
*.host7.app[0].source.displayStringTextFormat = "sent %p pk (%l)"
*.host7.app[0].source.packetLength = 15B
*.host7.app[0].source.productionInterval = 1ms
*.host7.app[0].display-name = "type2_1"
*.host7.app[0].io.destPort = 1000
*.host9.numApps = 1
*.host9.app[0].typename = "UdpSinkApp"
*.host9.app[0].io.localPort = 1000
*.streamRedundancyConfigurator.configuration = [
	{
		name: "shortest_path",
		packetFilter: "*-type2_1-*",
		source: "host7",
		destination: "host9",
		trees: [[["host7", "switch7", "switch9", "host9"]]]
	}]
	

