[General]
network = TSN_multipath
sim-time-limit = 10ms
*.macForwardingTableConfigurator.typename = ""
*.*.hasStreamRedundancy = true
*.*.bridging.streamRelay.typename = "StreamRelayLayer"
*.*.bridging.streamCoder.typename = "StreamCoderLayer"
*.streamRedundancyConfigurator.typename = "StreamRedundancyConfigurator"
*.host0.eth[0].bitrate = 1000Mbps
*.switch0.eth[0].bitrate = 1000Mbps
*.switch0.eth[1].bitrate = 2200Mbps
*.switch0.eth[2].bitrate = 1500Mbps
*.switch0.eth[3].bitrate = 1300Mbps
*.switch0.eth[4].bitrate = 2200Mbps
*.switch0.eth[5].bitrate = 2200Mbps
*.switch0.eth[6].bitrate = 2000Mbps
*.switch0.eth[7].bitrate = 1600Mbps
*.switch0.eth[8].bitrate = 1800Mbps
*.switch0.eth[9].bitrate = 1700Mbps
*.switch0.eth[10].bitrate = 1400Mbps
*.switch0.eth[11].bitrate = 1200Mbps
*.host1.eth[0].bitrate = 1000Mbps
*.switch1.eth[0].bitrate = 1000Mbps
*.switch1.eth[1].bitrate = 2200Mbps
*.switch1.eth[2].bitrate = 1900Mbps
*.switch1.eth[3].bitrate = 1200Mbps
*.switch1.eth[4].bitrate = 1600Mbps
*.switch1.eth[5].bitrate = 1200Mbps
*.switch1.eth[6].bitrate = 1800Mbps
*.switch1.eth[7].bitrate = 1700Mbps
*.switch1.eth[8].bitrate = 2100Mbps
*.host2.eth[0].bitrate = 1000Mbps
*.switch2.eth[0].bitrate = 1000Mbps
*.switch2.eth[1].bitrate = 1700Mbps
*.switch2.eth[2].bitrate = 1200Mbps
*.switch2.eth[3].bitrate = 1400Mbps
*.switch2.eth[4].bitrate = 1600Mbps
*.switch2.eth[5].bitrate = 1600Mbps
*.switch2.eth[6].bitrate = 1700Mbps
*.switch2.eth[7].bitrate = 2400Mbps
*.switch2.eth[8].bitrate = 1700Mbps
*.host3.eth[0].bitrate = 1000Mbps
*.switch3.eth[0].bitrate = 1000Mbps
*.switch3.eth[1].bitrate = 1500Mbps
*.switch3.eth[2].bitrate = 1900Mbps
*.switch3.eth[3].bitrate = 2400Mbps
*.switch3.eth[4].bitrate = 2300Mbps
*.switch3.eth[5].bitrate = 1300Mbps
*.host4.eth[0].bitrate = 1000Mbps
*.switch4.eth[0].bitrate = 1000Mbps
*.switch4.eth[1].bitrate = 1300Mbps
*.switch4.eth[2].bitrate = 1600Mbps
*.switch4.eth[3].bitrate = 1600Mbps
*.switch4.eth[4].bitrate = 1900Mbps
*.switch4.eth[5].bitrate = 1200Mbps
*.switch4.eth[6].bitrate = 1600Mbps
*.switch4.eth[7].bitrate = 1500Mbps
*.host5.eth[0].bitrate = 1000Mbps
*.switch5.eth[0].bitrate = 1000Mbps
*.switch5.eth[1].bitrate = 2200Mbps
*.switch5.eth[2].bitrate = 1400Mbps
*.switch5.eth[3].bitrate = 1400Mbps
*.switch5.eth[4].bitrate = 1700Mbps
*.switch5.eth[5].bitrate = 2300Mbps
*.switch5.eth[6].bitrate = 1200Mbps
*.switch5.eth[7].bitrate = 2300Mbps
*.switch5.eth[8].bitrate = 2400Mbps
*.switch5.eth[9].bitrate = 1300Mbps
*.switch5.eth[10].bitrate = 1300Mbps
*.host6.eth[0].bitrate = 1000Mbps
*.switch6.eth[0].bitrate = 1000Mbps
*.switch6.eth[1].bitrate = 2200Mbps
*.switch6.eth[2].bitrate = 2300Mbps
*.switch6.eth[3].bitrate = 1200Mbps
*.switch6.eth[4].bitrate = 1200Mbps
*.switch6.eth[5].bitrate = 2400Mbps
*.switch6.eth[6].bitrate = 1300Mbps
*.switch6.eth[7].bitrate = 1600Mbps
*.switch6.eth[8].bitrate = 1300Mbps
*.switch6.eth[9].bitrate = 1700Mbps
*.switch6.eth[10].bitrate = 1600Mbps
*.switch6.eth[11].bitrate = 2400Mbps
*.host7.eth[0].bitrate = 1000Mbps
*.switch7.eth[0].bitrate = 1000Mbps
*.switch7.eth[1].bitrate = 2000Mbps
*.switch7.eth[2].bitrate = 2400Mbps
*.switch7.eth[3].bitrate = 1700Mbps
*.switch7.eth[4].bitrate = 1800Mbps
*.switch7.eth[5].bitrate = 1700Mbps
*.switch7.eth[6].bitrate = 1500Mbps
*.switch7.eth[7].bitrate = 1800Mbps
*.host8.eth[0].bitrate = 1000Mbps
*.switch8.eth[0].bitrate = 1000Mbps
*.switch8.eth[1].bitrate = 1600Mbps
*.switch8.eth[2].bitrate = 1600Mbps
*.switch8.eth[3].bitrate = 1900Mbps
*.switch8.eth[4].bitrate = 2400Mbps
*.switch8.eth[5].bitrate = 1600Mbps
*.switch8.eth[6].bitrate = 1800Mbps
*.switch8.eth[7].bitrate = 1700Mbps
*.switch8.eth[8].bitrate = 1800Mbps
*.host9.eth[0].bitrate = 1000Mbps
*.switch9.eth[0].bitrate = 1000Mbps
*.switch9.eth[1].bitrate = 1800Mbps
*.switch9.eth[2].bitrate = 1300Mbps
*.switch9.eth[3].bitrate = 2100Mbps
*.switch9.eth[4].bitrate = 2400Mbps
*.switch9.eth[5].bitrate = 1800Mbps
*.host0.numApps = 7
*.host0.app[0].typename = "UdpSourceApp"
*.host0.app[0].io.destAddress = "host8"
*.host0.app[0].source.packetNameFormat = "%M-%m-%c"
*.host0.app[0].source.displayStringTextFormat = "sent %p pk (%l)"
*.host0.app[0].source.packetLength = 24B
*.host0.app[0].source.productionInterval = 1ms
*.host0.app[0].display-name = "type1_4"
*.host0.app[0].io.destPort = 1000
*.host0.app[1].typename = "UdpBasicApp"
*.host0.app[1].destAddresses = "host6"
*.host0.app[1].source.packetNameFormat = "%M-%m-%c"
*.host0.app[1].source.displayStringTextFormat = "sent %p pk (%l)"
*.host0.app[1].messageLength = 17B
*.host0.app[1].sendInterval = 1ms
*.host0.app[1].startTime = 200us
*.host0.app[1].stopTime = 3200us
*.host0.app[1].display-name = "type2_0"
*.host0.app[1].destPort = 1000
*.host0.app[2].typename = "UdpBasicApp"
*.host0.app[2].destAddresses = "host6"
*.host0.app[2].source.packetNameFormat = "%M-%m-%c"
*.host0.app[2].source.displayStringTextFormat = "sent %p pk (%l)"
*.host0.app[2].messageLength = 17B
*.host0.app[2].sendInterval = 1ms
*.host0.app[2].startTime = 4400us
*.host0.app[2].stopTime = 4800us
*.host0.app[2].display-name = "type2_0"
*.host0.app[2].destPort = 1000
*.host0.app[3].typename = "UdpBasicApp"
*.host0.app[3].destAddresses = "host6"
*.host0.app[3].source.packetNameFormat = "%M-%m-%c"
*.host0.app[3].source.displayStringTextFormat = "sent %p pk (%l)"
*.host0.app[3].messageLength = 17B
*.host0.app[3].sendInterval = 1ms
*.host0.app[3].startTime = 5700us
*.host0.app[3].stopTime = 6300us
*.host0.app[3].display-name = "type2_0"
*.host0.app[3].destPort = 1000
*.host0.app[4].typename = "UdpBasicApp"
*.host0.app[4].destAddresses = "host6"
*.host0.app[4].source.packetNameFormat = "%M-%m-%c"
*.host0.app[4].source.displayStringTextFormat = "sent %p pk (%l)"
*.host0.app[4].messageLength = 17B
*.host0.app[4].sendInterval = 1ms
*.host0.app[4].startTime = 7700us
*.host0.app[4].stopTime = 8100us
*.host0.app[4].display-name = "type2_0"
*.host0.app[4].destPort = 1000
*.host0.app[5].typename = "UdpBasicApp"
*.host0.app[5].destAddresses = "host6"
*.host0.app[5].source.packetNameFormat = "%M-%m-%c"
*.host0.app[5].source.displayStringTextFormat = "sent %p pk (%l)"
*.host0.app[5].messageLength = 17B
*.host0.app[5].sendInterval = 1ms
*.host0.app[5].startTime = 8800us
*.host0.app[5].stopTime = 10000us
*.host0.app[5].display-name = "type2_0"
*.host0.app[5].destPort = 1000
*.host0.app[6].typename = "UdpSinkApp"
*.host0.app[6].io.localPort = 1000
*.host1.numApps = 6
*.host1.app[0].typename = "UdpSourceApp"
*.host1.app[0].io.destAddress = "host9"
*.host1.app[0].source.packetNameFormat = "%M-%m-%c"
*.host1.app[0].source.displayStringTextFormat = "sent %p pk (%l)"
*.host1.app[0].source.packetLength = 18B
*.host1.app[0].source.productionInterval = 1ms
*.host1.app[0].display-name = "type1_3"
*.host1.app[0].io.destPort = 1000
*.host1.app[1].typename = "UdpSinkApp"
*.host1.app[1].io.localPort = 1000
*.host1.app[2].typename = "UdpBasicApp"
*.host1.app[2].destAddresses = "host5"
*.host1.app[2].source.packetNameFormat = "%M-%m-%c"
*.host1.app[2].source.displayStringTextFormat = "sent %p pk (%l)"
*.host1.app[2].messageLength = 20B
*.host1.app[2].sendInterval = 1ms
*.host1.app[2].startTime = 100us
*.host1.app[2].stopTime = 700us
*.host1.app[2].display-name = "type2_8"
*.host1.app[2].destPort = 1000
*.host1.app[3].typename = "UdpBasicApp"
*.host1.app[3].destAddresses = "host5"
*.host1.app[3].source.packetNameFormat = "%M-%m-%c"
*.host1.app[3].source.displayStringTextFormat = "sent %p pk (%l)"
*.host1.app[3].messageLength = 20B
*.host1.app[3].sendInterval = 1ms
*.host1.app[3].startTime = 2600us
*.host1.app[3].stopTime = 2700us
*.host1.app[3].display-name = "type2_8"
*.host1.app[3].destPort = 1000
*.host1.app[4].typename = "UdpBasicApp"
*.host1.app[4].destAddresses = "host5"
*.host1.app[4].source.packetNameFormat = "%M-%m-%c"
*.host1.app[4].source.displayStringTextFormat = "sent %p pk (%l)"
*.host1.app[4].messageLength = 20B
*.host1.app[4].sendInterval = 1ms
*.host1.app[4].startTime = 2900us
*.host1.app[4].stopTime = 6500us
*.host1.app[4].display-name = "type2_8"
*.host1.app[4].destPort = 1000
*.host1.app[5].typename = "UdpSinkApp"
*.host1.app[5].io.localPort = 1001
*.host2.numApps = 10
*.host2.app[0].typename = "UdpSinkApp"
*.host2.app[0].io.localPort = 1000
*.host2.app[1].typename = "UdpBasicApp"
*.host2.app[1].destAddresses = "host1"
*.host2.app[1].source.packetNameFormat = "%M-%m-%c"
*.host2.app[1].source.displayStringTextFormat = "sent %p pk (%l)"
*.host2.app[1].messageLength = 17B
*.host2.app[1].sendInterval = 1ms
*.host2.app[1].startTime = 400us
*.host2.app[1].stopTime = 1100us
*.host2.app[1].display-name = "type2_2"
*.host2.app[1].destPort = 1000
*.host2.app[2].typename = "UdpBasicApp"
*.host2.app[2].destAddresses = "host1"
*.host2.app[2].source.packetNameFormat = "%M-%m-%c"
*.host2.app[2].source.displayStringTextFormat = "sent %p pk (%l)"
*.host2.app[2].messageLength = 17B
*.host2.app[2].sendInterval = 1ms
*.host2.app[2].startTime = 1200us
*.host2.app[2].stopTime = 1300us
*.host2.app[2].display-name = "type2_2"
*.host2.app[2].destPort = 1000
*.host2.app[3].typename = "UdpBasicApp"
*.host2.app[3].destAddresses = "host1"
*.host2.app[3].source.packetNameFormat = "%M-%m-%c"
*.host2.app[3].source.displayStringTextFormat = "sent %p pk (%l)"
*.host2.app[3].messageLength = 17B
*.host2.app[3].sendInterval = 1ms
*.host2.app[3].startTime = 1500us
*.host2.app[3].stopTime = 2800us
*.host2.app[3].display-name = "type2_2"
*.host2.app[3].destPort = 1000
*.host2.app[4].typename = "UdpBasicApp"
*.host2.app[4].destAddresses = "host1"
*.host2.app[4].source.packetNameFormat = "%M-%m-%c"
*.host2.app[4].source.displayStringTextFormat = "sent %p pk (%l)"
*.host2.app[4].messageLength = 17B
*.host2.app[4].sendInterval = 1ms
*.host2.app[4].startTime = 3300us
*.host2.app[4].stopTime = 3700us
*.host2.app[4].display-name = "type2_2"
*.host2.app[4].destPort = 1000
*.host2.app[5].typename = "UdpBasicApp"
*.host2.app[5].destAddresses = "host1"
*.host2.app[5].source.packetNameFormat = "%M-%m-%c"
*.host2.app[5].source.displayStringTextFormat = "sent %p pk (%l)"
*.host2.app[5].messageLength = 17B
*.host2.app[5].sendInterval = 1ms
*.host2.app[5].startTime = 5200us
*.host2.app[5].stopTime = 5400us
*.host2.app[5].display-name = "type2_2"
*.host2.app[5].destPort = 1000
*.host2.app[6].typename = "UdpBasicApp"
*.host2.app[6].destAddresses = "host1"
*.host2.app[6].source.packetNameFormat = "%M-%m-%c"
*.host2.app[6].source.displayStringTextFormat = "sent %p pk (%l)"
*.host2.app[6].messageLength = 17B
*.host2.app[6].sendInterval = 1ms
*.host2.app[6].startTime = 6700us
*.host2.app[6].stopTime = 7100us
*.host2.app[6].display-name = "type2_2"
*.host2.app[6].destPort = 1000
*.host2.app[7].typename = "UdpBasicApp"
*.host2.app[7].destAddresses = "host1"
*.host2.app[7].source.packetNameFormat = "%M-%m-%c"
*.host2.app[7].source.displayStringTextFormat = "sent %p pk (%l)"
*.host2.app[7].messageLength = 17B
*.host2.app[7].sendInterval = 1ms
*.host2.app[7].startTime = 7700us
*.host2.app[7].stopTime = 8400us
*.host2.app[7].display-name = "type2_2"
*.host2.app[7].destPort = 1000
*.host2.app[8].typename = "UdpBasicApp"
*.host2.app[8].destAddresses = "host1"
*.host2.app[8].source.packetNameFormat = "%M-%m-%c"
*.host2.app[8].source.displayStringTextFormat = "sent %p pk (%l)"
*.host2.app[8].messageLength = 17B
*.host2.app[8].sendInterval = 1ms
*.host2.app[8].startTime = 8800us
*.host2.app[8].stopTime = 9000us
*.host2.app[8].display-name = "type2_2"
*.host2.app[8].destPort = 1000
*.host2.app[9].typename = "UdpSinkApp"
*.host2.app[9].io.localPort = 1001
*.host3.numApps = 6
*.host3.app[0].typename = "UdpSinkApp"
*.host3.app[0].io.localPort = 1000
*.host3.app[1].typename = "UdpBasicApp"
*.host3.app[1].destAddresses = "host6"
*.host3.app[1].source.packetNameFormat = "%M-%m-%c"
*.host3.app[1].source.displayStringTextFormat = "sent %p pk (%l)"
*.host3.app[1].messageLength = 14B
*.host3.app[1].sendInterval = 1ms
*.host3.app[1].startTime = 1300us
*.host3.app[1].stopTime = 2500us
*.host3.app[1].display-name = "type2_1"
*.host3.app[1].destPort = 1001
*.host3.app[2].typename = "UdpBasicApp"
*.host3.app[2].destAddresses = "host6"
*.host3.app[2].source.packetNameFormat = "%M-%m-%c"
*.host3.app[2].source.displayStringTextFormat = "sent %p pk (%l)"
*.host3.app[2].messageLength = 14B
*.host3.app[2].sendInterval = 1ms
*.host3.app[2].startTime = 3000us
*.host3.app[2].stopTime = 3500us
*.host3.app[2].display-name = "type2_1"
*.host3.app[2].destPort = 1001
*.host3.app[3].typename = "UdpBasicApp"
*.host3.app[3].destAddresses = "host6"
*.host3.app[3].source.packetNameFormat = "%M-%m-%c"
*.host3.app[3].source.displayStringTextFormat = "sent %p pk (%l)"
*.host3.app[3].messageLength = 14B
*.host3.app[3].sendInterval = 1ms
*.host3.app[3].startTime = 6800us
*.host3.app[3].stopTime = 7200us
*.host3.app[3].display-name = "type2_1"
*.host3.app[3].destPort = 1001
*.host3.app[4].typename = "UdpBasicApp"
*.host3.app[4].destAddresses = "host6"
*.host3.app[4].source.packetNameFormat = "%M-%m-%c"
*.host3.app[4].source.displayStringTextFormat = "sent %p pk (%l)"
*.host3.app[4].messageLength = 14B
*.host3.app[4].sendInterval = 1ms
*.host3.app[4].startTime = 7900us
*.host3.app[4].stopTime = 10000us
*.host3.app[4].display-name = "type2_1"
*.host3.app[4].destPort = 1001
*.host3.app[5].typename = "UdpSinkApp"
*.host3.app[5].io.localPort = 1001
*.host4.numApps = 12
*.host4.app[0].typename = "UdpSinkApp"
*.host4.app[0].io.localPort = 1000
*.host4.app[1].typename = "UdpBasicApp"
*.host4.app[1].destAddresses = "host3"
*.host4.app[1].source.packetNameFormat = "%M-%m-%c"
*.host4.app[1].source.displayStringTextFormat = "sent %p pk (%l)"
*.host4.app[1].messageLength = 14B
*.host4.app[1].sendInterval = 1ms
*.host4.app[1].startTime = 300us
*.host4.app[1].stopTime = 1200us
*.host4.app[1].display-name = "type2_3"
*.host4.app[1].destPort = 1001
*.host4.app[2].typename = "UdpBasicApp"
*.host4.app[2].destAddresses = "host3"
*.host4.app[2].source.packetNameFormat = "%M-%m-%c"
*.host4.app[2].source.displayStringTextFormat = "sent %p pk (%l)"
*.host4.app[2].messageLength = 14B
*.host4.app[2].sendInterval = 1ms
*.host4.app[2].startTime = 1700us
*.host4.app[2].stopTime = 2100us
*.host4.app[2].display-name = "type2_3"
*.host4.app[2].destPort = 1001
*.host4.app[3].typename = "UdpBasicApp"
*.host4.app[3].destAddresses = "host3"
*.host4.app[3].source.packetNameFormat = "%M-%m-%c"
*.host4.app[3].source.displayStringTextFormat = "sent %p pk (%l)"
*.host4.app[3].messageLength = 14B
*.host4.app[3].sendInterval = 1ms
*.host4.app[3].startTime = 2400us
*.host4.app[3].stopTime = 2600us
*.host4.app[3].display-name = "type2_3"
*.host4.app[3].destPort = 1001
*.host4.app[4].typename = "UdpBasicApp"
*.host4.app[4].destAddresses = "host3"
*.host4.app[4].source.packetNameFormat = "%M-%m-%c"
*.host4.app[4].source.displayStringTextFormat = "sent %p pk (%l)"
*.host4.app[4].messageLength = 14B
*.host4.app[4].sendInterval = 1ms
*.host4.app[4].startTime = 4300us
*.host4.app[4].stopTime = 4400us
*.host4.app[4].display-name = "type2_3"
*.host4.app[4].destPort = 1001
*.host4.app[5].typename = "UdpBasicApp"
*.host4.app[5].destAddresses = "host3"
*.host4.app[5].source.packetNameFormat = "%M-%m-%c"
*.host4.app[5].source.displayStringTextFormat = "sent %p pk (%l)"
*.host4.app[5].messageLength = 14B
*.host4.app[5].sendInterval = 1ms
*.host4.app[5].startTime = 6400us
*.host4.app[5].stopTime = 8600us
*.host4.app[5].display-name = "type2_3"
*.host4.app[5].destPort = 1001
*.host4.app[6].typename = "UdpBasicApp"
*.host4.app[6].destAddresses = "host3"
*.host4.app[6].source.packetNameFormat = "%M-%m-%c"
*.host4.app[6].source.displayStringTextFormat = "sent %p pk (%l)"
*.host4.app[6].messageLength = 14B
*.host4.app[6].sendInterval = 1ms
*.host4.app[6].startTime = 9300us
*.host4.app[6].stopTime = 9800us
*.host4.app[6].display-name = "type2_3"
*.host4.app[6].destPort = 1001
*.host4.app[7].typename = "UdpBasicApp"
*.host4.app[7].destAddresses = "host7"
*.host4.app[7].source.packetNameFormat = "%M-%m-%c"
*.host4.app[7].source.displayStringTextFormat = "sent %p pk (%l)"
*.host4.app[7].messageLength = 23B
*.host4.app[7].sendInterval = 1ms
*.host4.app[7].startTime = 300us
*.host4.app[7].stopTime = 2800us
*.host4.app[7].display-name = "type2_7"
*.host4.app[7].destPort = 1000
*.host4.app[8].typename = "UdpBasicApp"
*.host4.app[8].destAddresses = "host7"
*.host4.app[8].source.packetNameFormat = "%M-%m-%c"
*.host4.app[8].source.displayStringTextFormat = "sent %p pk (%l)"
*.host4.app[8].messageLength = 23B
*.host4.app[8].sendInterval = 1ms
*.host4.app[8].startTime = 2900us
*.host4.app[8].stopTime = 3600us
*.host4.app[8].display-name = "type2_7"
*.host4.app[8].destPort = 1000
*.host4.app[9].typename = "UdpBasicApp"
*.host4.app[9].destAddresses = "host7"
*.host4.app[9].source.packetNameFormat = "%M-%m-%c"
*.host4.app[9].source.displayStringTextFormat = "sent %p pk (%l)"
*.host4.app[9].messageLength = 23B
*.host4.app[9].sendInterval = 1ms
*.host4.app[9].startTime = 3700us
*.host4.app[9].stopTime = 4100us
*.host4.app[9].display-name = "type2_7"
*.host4.app[9].destPort = 1000
*.host4.app[10].typename = "UdpBasicApp"
*.host4.app[10].destAddresses = "host7"
*.host4.app[10].source.packetNameFormat = "%M-%m-%c"
*.host4.app[10].source.displayStringTextFormat = "sent %p pk (%l)"
*.host4.app[10].messageLength = 23B
*.host4.app[10].sendInterval = 1ms
*.host4.app[10].startTime = 5100us
*.host4.app[10].stopTime = 7100us
*.host4.app[10].display-name = "type2_7"
*.host4.app[10].destPort = 1000
*.host4.app[11].typename = "UdpBasicApp"
*.host4.app[11].destAddresses = "host7"
*.host4.app[11].source.packetNameFormat = "%M-%m-%c"
*.host4.app[11].source.displayStringTextFormat = "sent %p pk (%l)"
*.host4.app[11].messageLength = 23B
*.host4.app[11].sendInterval = 1ms
*.host4.app[11].startTime = 8700us
*.host4.app[11].stopTime = 9900us
*.host4.app[11].display-name = "type2_7"
*.host4.app[11].destPort = 1000
*.host5.numApps = 11
*.host5.app[0].typename = "UdpBasicApp"
*.host5.app[0].destAddresses = "host9"
*.host5.app[0].source.packetNameFormat = "%M-%m-%c"
*.host5.app[0].source.displayStringTextFormat = "sent %p pk (%l)"
*.host5.app[0].messageLength = 23B
*.host5.app[0].sendInterval = 1ms
*.host5.app[0].startTime = 1800us
*.host5.app[0].stopTime = 2500us
*.host5.app[0].display-name = "type2_4"
*.host5.app[0].destPort = 1001
*.host5.app[1].typename = "UdpBasicApp"
*.host5.app[1].destAddresses = "host9"
*.host5.app[1].source.packetNameFormat = "%M-%m-%c"
*.host5.app[1].source.displayStringTextFormat = "sent %p pk (%l)"
*.host5.app[1].messageLength = 23B
*.host5.app[1].sendInterval = 1ms
*.host5.app[1].startTime = 3900us
*.host5.app[1].stopTime = 7100us
*.host5.app[1].display-name = "type2_4"
*.host5.app[1].destPort = 1001
*.host5.app[2].typename = "UdpBasicApp"
*.host5.app[2].destAddresses = "host9"
*.host5.app[2].source.packetNameFormat = "%M-%m-%c"
*.host5.app[2].source.displayStringTextFormat = "sent %p pk (%l)"
*.host5.app[2].messageLength = 23B
*.host5.app[2].sendInterval = 1ms
*.host5.app[2].startTime = 7200us
*.host5.app[2].stopTime = 7700us
*.host5.app[2].display-name = "type2_4"
*.host5.app[2].destPort = 1001
*.host5.app[3].typename = "UdpBasicApp"
*.host5.app[3].destAddresses = "host9"
*.host5.app[3].source.packetNameFormat = "%M-%m-%c"
*.host5.app[3].source.displayStringTextFormat = "sent %p pk (%l)"
*.host5.app[3].messageLength = 23B
*.host5.app[3].sendInterval = 1ms
*.host5.app[3].startTime = 8700us
*.host5.app[3].stopTime = 10000us
*.host5.app[3].display-name = "type2_4"
*.host5.app[3].destPort = 1001
*.host5.app[4].typename = "UdpBasicApp"
*.host5.app[4].destAddresses = "host2"
*.host5.app[4].source.packetNameFormat = "%M-%m-%c"
*.host5.app[4].source.displayStringTextFormat = "sent %p pk (%l)"
*.host5.app[4].messageLength = 19B
*.host5.app[4].sendInterval = 1ms
*.host5.app[4].startTime = 900us
*.host5.app[4].stopTime = 1400us
*.host5.app[4].display-name = "type2_6"
*.host5.app[4].destPort = 1001
*.host5.app[5].typename = "UdpBasicApp"
*.host5.app[5].destAddresses = "host2"
*.host5.app[5].source.packetNameFormat = "%M-%m-%c"
*.host5.app[5].source.displayStringTextFormat = "sent %p pk (%l)"
*.host5.app[5].messageLength = 19B
*.host5.app[5].sendInterval = 1ms
*.host5.app[5].startTime = 3100us
*.host5.app[5].stopTime = 4600us
*.host5.app[5].display-name = "type2_6"
*.host5.app[5].destPort = 1001
*.host5.app[6].typename = "UdpBasicApp"
*.host5.app[6].destAddresses = "host2"
*.host5.app[6].source.packetNameFormat = "%M-%m-%c"
*.host5.app[6].source.displayStringTextFormat = "sent %p pk (%l)"
*.host5.app[6].messageLength = 19B
*.host5.app[6].sendInterval = 1ms
*.host5.app[6].startTime = 5800us
*.host5.app[6].stopTime = 6100us
*.host5.app[6].display-name = "type2_6"
*.host5.app[6].destPort = 1001
*.host5.app[7].typename = "UdpBasicApp"
*.host5.app[7].destAddresses = "host2"
*.host5.app[7].source.packetNameFormat = "%M-%m-%c"
*.host5.app[7].source.displayStringTextFormat = "sent %p pk (%l)"
*.host5.app[7].messageLength = 19B
*.host5.app[7].sendInterval = 1ms
*.host5.app[7].startTime = 6500us
*.host5.app[7].stopTime = 7400us
*.host5.app[7].display-name = "type2_6"
*.host5.app[7].destPort = 1001
*.host5.app[8].typename = "UdpBasicApp"
*.host5.app[8].destAddresses = "host2"
*.host5.app[8].source.packetNameFormat = "%M-%m-%c"
*.host5.app[8].source.displayStringTextFormat = "sent %p pk (%l)"
*.host5.app[8].messageLength = 19B
*.host5.app[8].sendInterval = 1ms
*.host5.app[8].startTime = 7900us
*.host5.app[8].stopTime = 9500us
*.host5.app[8].display-name = "type2_6"
*.host5.app[8].destPort = 1001
*.host5.app[9].typename = "UdpBasicApp"
*.host5.app[9].destAddresses = "host2"
*.host5.app[9].source.packetNameFormat = "%M-%m-%c"
*.host5.app[9].source.displayStringTextFormat = "sent %p pk (%l)"
*.host5.app[9].messageLength = 19B
*.host5.app[9].sendInterval = 1ms
*.host5.app[9].startTime = 9900us
*.host5.app[9].stopTime = 10000us
*.host5.app[9].display-name = "type2_6"
*.host5.app[9].destPort = 1001
*.host5.app[10].typename = "UdpSinkApp"
*.host5.app[10].io.localPort = 1000
*.host6.numApps = 10
*.host6.app[0].typename = "UdpSourceApp"
*.host6.app[0].io.destAddress = "host2"
*.host6.app[0].source.packetNameFormat = "%M-%m-%c"
*.host6.app[0].source.displayStringTextFormat = "sent %p pk (%l)"
*.host6.app[0].source.packetLength = 14B
*.host6.app[0].source.productionInterval = 1ms
*.host6.app[0].display-name = "type1_1"
*.host6.app[0].io.destPort = 1000
*.host6.app[1].typename = "UdpSinkApp"
*.host6.app[1].io.localPort = 1000
*.host6.app[2].typename = "UdpSinkApp"
*.host6.app[2].io.localPort = 1001
*.host6.app[3].typename = "UdpBasicApp"
*.host6.app[3].destAddresses = "host1"
*.host6.app[3].source.packetNameFormat = "%M-%m-%c"
*.host6.app[3].source.displayStringTextFormat = "sent %p pk (%l)"
*.host6.app[3].messageLength = 14B
*.host6.app[3].sendInterval = 1ms
*.host6.app[3].startTime = 0us
*.host6.app[3].stopTime = 300us
*.host6.app[3].display-name = "type2_9"
*.host6.app[3].destPort = 1001
*.host6.app[4].typename = "UdpBasicApp"
*.host6.app[4].destAddresses = "host1"
*.host6.app[4].source.packetNameFormat = "%M-%m-%c"
*.host6.app[4].source.displayStringTextFormat = "sent %p pk (%l)"
*.host6.app[4].messageLength = 14B
*.host6.app[4].sendInterval = 1ms
*.host6.app[4].startTime = 800us
*.host6.app[4].stopTime = 900us
*.host6.app[4].display-name = "type2_9"
*.host6.app[4].destPort = 1001
*.host6.app[5].typename = "UdpBasicApp"
*.host6.app[5].destAddresses = "host1"
*.host6.app[5].source.packetNameFormat = "%M-%m-%c"
*.host6.app[5].source.displayStringTextFormat = "sent %p pk (%l)"
*.host6.app[5].messageLength = 14B
*.host6.app[5].sendInterval = 1ms
*.host6.app[5].startTime = 1000us
*.host6.app[5].stopTime = 1100us
*.host6.app[5].display-name = "type2_9"
*.host6.app[5].destPort = 1001
*.host6.app[6].typename = "UdpBasicApp"
*.host6.app[6].destAddresses = "host1"
*.host6.app[6].source.packetNameFormat = "%M-%m-%c"
*.host6.app[6].source.displayStringTextFormat = "sent %p pk (%l)"
*.host6.app[6].messageLength = 14B
*.host6.app[6].sendInterval = 1ms
*.host6.app[6].startTime = 2000us
*.host6.app[6].stopTime = 5900us
*.host6.app[6].display-name = "type2_9"
*.host6.app[6].destPort = 1001
*.host6.app[7].typename = "UdpBasicApp"
*.host6.app[7].destAddresses = "host1"
*.host6.app[7].source.packetNameFormat = "%M-%m-%c"
*.host6.app[7].source.displayStringTextFormat = "sent %p pk (%l)"
*.host6.app[7].messageLength = 14B
*.host6.app[7].sendInterval = 1ms
*.host6.app[7].startTime = 6100us
*.host6.app[7].stopTime = 6600us
*.host6.app[7].display-name = "type2_9"
*.host6.app[7].destPort = 1001
*.host6.app[8].typename = "UdpBasicApp"
*.host6.app[8].destAddresses = "host1"
*.host6.app[8].source.packetNameFormat = "%M-%m-%c"
*.host6.app[8].source.displayStringTextFormat = "sent %p pk (%l)"
*.host6.app[8].messageLength = 14B
*.host6.app[8].sendInterval = 1ms
*.host6.app[8].startTime = 7700us
*.host6.app[8].stopTime = 8100us
*.host6.app[8].display-name = "type2_9"
*.host6.app[8].destPort = 1001
*.host6.app[9].typename = "UdpBasicApp"
*.host6.app[9].destAddresses = "host1"
*.host6.app[9].source.packetNameFormat = "%M-%m-%c"
*.host6.app[9].source.displayStringTextFormat = "sent %p pk (%l)"
*.host6.app[9].messageLength = 14B
*.host6.app[9].sendInterval = 1ms
*.host6.app[9].startTime = 8500us
*.host6.app[9].stopTime = 9400us
*.host6.app[9].display-name = "type2_9"
*.host6.app[9].destPort = 1001
*.host7.numApps = 7
*.host7.app[0].typename = "UdpBasicApp"
*.host7.app[0].destAddresses = "host0"
*.host7.app[0].source.packetNameFormat = "%M-%m-%c"
*.host7.app[0].source.displayStringTextFormat = "sent %p pk (%l)"
*.host7.app[0].messageLength = 16B
*.host7.app[0].sendInterval = 1ms
*.host7.app[0].startTime = 1000us
*.host7.app[0].stopTime = 1600us
*.host7.app[0].display-name = "type2_5"
*.host7.app[0].destPort = 1000
*.host7.app[1].typename = "UdpBasicApp"
*.host7.app[1].destAddresses = "host0"
*.host7.app[1].source.packetNameFormat = "%M-%m-%c"
*.host7.app[1].source.displayStringTextFormat = "sent %p pk (%l)"
*.host7.app[1].messageLength = 16B
*.host7.app[1].sendInterval = 1ms
*.host7.app[1].startTime = 2200us
*.host7.app[1].stopTime = 2400us
*.host7.app[1].display-name = "type2_5"
*.host7.app[1].destPort = 1000
*.host7.app[2].typename = "UdpBasicApp"
*.host7.app[2].destAddresses = "host0"
*.host7.app[2].source.packetNameFormat = "%M-%m-%c"
*.host7.app[2].source.displayStringTextFormat = "sent %p pk (%l)"
*.host7.app[2].messageLength = 16B
*.host7.app[2].sendInterval = 1ms
*.host7.app[2].startTime = 3200us
*.host7.app[2].stopTime = 3300us
*.host7.app[2].display-name = "type2_5"
*.host7.app[2].destPort = 1000
*.host7.app[3].typename = "UdpBasicApp"
*.host7.app[3].destAddresses = "host0"
*.host7.app[3].source.packetNameFormat = "%M-%m-%c"
*.host7.app[3].source.displayStringTextFormat = "sent %p pk (%l)"
*.host7.app[3].messageLength = 16B
*.host7.app[3].sendInterval = 1ms
*.host7.app[3].startTime = 4100us
*.host7.app[3].stopTime = 5100us
*.host7.app[3].display-name = "type2_5"
*.host7.app[3].destPort = 1000
*.host7.app[4].typename = "UdpBasicApp"
*.host7.app[4].destAddresses = "host0"
*.host7.app[4].source.packetNameFormat = "%M-%m-%c"
*.host7.app[4].source.displayStringTextFormat = "sent %p pk (%l)"
*.host7.app[4].messageLength = 16B
*.host7.app[4].sendInterval = 1ms
*.host7.app[4].startTime = 5500us
*.host7.app[4].stopTime = 6100us
*.host7.app[4].display-name = "type2_5"
*.host7.app[4].destPort = 1000
*.host7.app[5].typename = "UdpBasicApp"
*.host7.app[5].destAddresses = "host0"
*.host7.app[5].source.packetNameFormat = "%M-%m-%c"
*.host7.app[5].source.displayStringTextFormat = "sent %p pk (%l)"
*.host7.app[5].messageLength = 16B
*.host7.app[5].sendInterval = 1ms
*.host7.app[5].startTime = 7500us
*.host7.app[5].stopTime = 8500us
*.host7.app[5].display-name = "type2_5"
*.host7.app[5].destPort = 1000
*.host7.app[6].typename = "UdpSinkApp"
*.host7.app[6].io.localPort = 1000
*.host8.numApps = 2
*.host8.app[0].typename = "UdpSourceApp"
*.host8.app[0].io.destAddress = "host3"
*.host8.app[0].source.packetNameFormat = "%M-%m-%c"
*.host8.app[0].source.displayStringTextFormat = "sent %p pk (%l)"
*.host8.app[0].source.packetLength = 19B
*.host8.app[0].source.productionInterval = 1ms
*.host8.app[0].display-name = "type1_2"
*.host8.app[0].io.destPort = 1000
*.host8.app[1].typename = "UdpSinkApp"
*.host8.app[1].io.localPort = 1000
*.host9.numApps = 3
*.host9.app[0].typename = "UdpSourceApp"
*.host9.app[0].io.destAddress = "host4"
*.host9.app[0].source.packetNameFormat = "%M-%m-%c"
*.host9.app[0].source.displayStringTextFormat = "sent %p pk (%l)"
*.host9.app[0].source.packetLength = 15B
*.host9.app[0].source.productionInterval = 1ms
*.host9.app[0].display-name = "type1_0"
*.host9.app[0].io.destPort = 1000
*.host9.app[1].typename = "UdpSinkApp"
*.host9.app[1].io.localPort = 1000
*.host9.app[2].typename = "UdpSinkApp"
*.host9.app[2].io.localPort = 1001
*.streamRedundancyConfigurator.configuration = [
	{
		name: "S1-0",
		packetFilter: "*-type1_0-*",
		source: "host9",
		destination: "host4",
		trees: [[["host9", "switch9", "switch6", "switch4", "host4"]]]
	},
	{
		name: "S1-1",
		packetFilter: "*-type1_1-*",
		source: "host6",
		destination: "host2",
		trees: [[["host6", "switch6", "switch2", "host2"]]]
	},
	{
		name: "S1-2",
		packetFilter: "*-type1_2-*",
		source: "host8",
		destination: "host3",
		trees: [[["host8", "switch8", "switch1", "switch3", "host3"]]]
	},
	{
		name: "S1-3",
		packetFilter: "*-type1_3-*",
		source: "host1",
		destination: "host9",
		trees: [[["host1",
	 "switch1",
	 "switch3",
	 "switch7",
	 "switch2",
	 "switch0",
	 "switch9",
	 "host9"]]]
	},
	{
		name: "S1-4",
		packetFilter: "*-type1_4-*",
		source: "host0",
		destination: "host8",
		trees: [[["host0", "switch0", "switch8", "host8"]]]
	},
	{
		name: "S2-0",
		packetFilter: "*-type2_0-*",
		source: "host0",
		destination: "host6",
		trees: [[["host0",
	 "switch0",
	 "switch1",
	 "switch3",
	 "switch7",
	 "switch4",
	 "switch2",
	 "switch5",
	 "switch9",
	 "switch6",
	 "host6"]]]
	},
	{