[General]
network = TSN_multipath
sim-time-limit = 10ms
*.macForwardingTableConfigurator.typename = ""
*.*.hasStreamRedundancy = true
*.*.bridging.streamRelay.typename = "StreamRelayLayer"
*.*.bridging.streamCoder.typename = "StreamCoderLayer"
*.streamRedundancyConfigurator.typename = "StreamRedundancyConfigurator"
*.host0.eth[0].bitrate = 1000Mbps
*.switch0.eth[0].bitrate = 1000Mbps
*.switch0.eth[1].bitrate = 2300Mbps
*.switch0.eth[2].bitrate = 1400Mbps
*.switch0.eth[3].bitrate = 1300Mbps
*.switch0.eth[4].bitrate = 2300Mbps
*.host1.eth[0].bitrate = 1000Mbps
*.switch1.eth[0].bitrate = 1000Mbps
*.switch1.eth[1].bitrate = 1500Mbps
*.switch1.eth[2].bitrate = 2100Mbps
*.switch1.eth[3].bitrate = 1700Mbps
*.host2.eth[0].bitrate = 1000Mbps
*.switch2.eth[0].bitrate = 1000Mbps
*.switch2.eth[1].bitrate = 2300Mbps
*.switch2.eth[2].bitrate = 2300Mbps
*.switch2.eth[3].bitrate = 2100Mbps
*.switch2.eth[4].bitrate = 2100Mbps
*.switch2.eth[5].bitrate = 1600Mbps
*.host3.eth[0].bitrate = 1000Mbps
*.switch3.eth[0].bitrate = 1000Mbps
*.switch3.eth[1].bitrate = 1400Mbps
*.switch3.eth[2].bitrate = 1500Mbps
*.switch3.eth[3].bitrate = 1700Mbps
*.switch3.eth[4].bitrate = 2100Mbps
*.host4.eth[0].bitrate = 1000Mbps
*.switch4.eth[0].bitrate = 1000Mbps
*.switch4.eth[1].bitrate = 1300Mbps
*.switch4.eth[2].bitrate = 2100Mbps
*.switch4.eth[3].bitrate = 2100Mbps
*.switch4.eth[4].bitrate = 1600Mbps
*.host0.numApps = 16
*.host0.app[0].typename = "UdpSinkApp"
*.host0.app[0].io.localPort = 1000
*.host0.app[1].typename = "UdpSourceApp"
*.host0.app[1].io.destAddress = "host2"
*.host0.app[1].source.packetNameFormat = "%M-%m-%c"
*.host0.app[1].source.displayStringTextFormat = "sent %p pk (%l)"
*.host0.app[1].source.packetLength = 13B
*.host0.app[1].source.productionInterval = 1ms
*.host0.app[1].display-name = "type1_1"
*.host0.app[1].io.destPort = 1000
*.host0.app[2].typename = "UdpBasicApp"
*.host0.app[2].destAddresses = "host4"
*.host0.app[2].source.packetNameFormat = "%M-%m-%c"
*.host0.app[2].source.displayStringTextFormat = "sent %p pk (%l)"
*.host0.app[2].messageLength = 19B
*.host0.app[2].sendInterval = 1ms
*.host0.app[2].startTime = 400us
*.host0.app[2].stopTime = 900us
*.host0.app[2].display-name = "type2_0"
*.host0.app[2].destPort = 1000
*.host0.app[3].typename = "UdpBasicApp"
*.host0.app[3].destAddresses = "host4"
*.host0.app[3].source.packetNameFormat = "%M-%m-%c"
*.host0.app[3].source.displayStringTextFormat = "sent %p pk (%l)"
*.host0.app[3].messageLength = 19B
*.host0.app[3].sendInterval = 1ms
*.host0.app[3].startTime = 1500us
*.host0.app[3].stopTime = 1800us
*.host0.app[3].display-name = "type2_0"
*.host0.app[3].destPort = 1000
*.host0.app[4].typename = "UdpBasicApp"
*.host0.app[4].destAddresses = "host4"
*.host0.app[4].source.packetNameFormat = "%M-%m-%c"
*.host0.app[4].source.displayStringTextFormat = "sent %p pk (%l)"
*.host0.app[4].messageLength = 19B
*.host0.app[4].sendInterval = 1ms
*.host0.app[4].startTime = 6000us
*.host0.app[4].stopTime = 6800us
*.host0.app[4].display-name = "type2_0"
*.host0.app[4].destPort = 1000
*.host0.app[5].typename = "UdpBasicApp"
*.host0.app[5].destAddresses = "host4"
*.host0.app[5].source.packetNameFormat = "%M-%m-%c"
*.host0.app[5].source.displayStringTextFormat = "sent %p pk (%l)"
*.host0.app[5].messageLength = 19B
*.host0.app[5].sendInterval = 1ms
*.host0.app[5].startTime = 7200us
*.host0.app[5].stopTime = 9400us
*.host0.app[5].display-name = "type2_0"
*.host0.app[5].destPort = 1000
*.host0.app[6].typename = "UdpBasicApp"
*.host0.app[6].destAddresses = "host4"
*.host0.app[6].source.packetNameFormat = "%M-%m-%c"
*.host0.app[6].source.displayStringTextFormat = "sent %p pk (%l)"
*.host0.app[6].messageLength = 19B
*.host0.app[6].sendInterval = 1ms
*.host0.app[6].startTime = 9600us
*.host0.app[6].stopTime = 10000us
*.host0.app[6].display-name = "type2_0"
*.host0.app[6].destPort = 1000
*.host0.app[7].typename = "UdpSinkApp"
*.host0.app[7].io.localPort = 1001
*.host0.app[8].typename = "UdpBasicApp"
*.host0.app[8].destAddresses = "host1"
*.host0.app[8].source.packetNameFormat = "%M-%m-%c"
*.host0.app[8].source.displayStringTextFormat = "sent %p pk (%l)"
*.host0.app[8].messageLength = 18B
*.host0.app[8].sendInterval = 1ms
*.host0.app[8].startTime = 1300us
*.host0.app[8].stopTime = 2500us
*.host0.app[8].display-name = "type2_5"
*.host0.app[8].destPort = 1002
*.host0.app[9].typename = "UdpBasicApp"
*.host0.app[9].destAddresses = "host1"
*.host0.app[9].source.packetNameFormat = "%M-%m-%c"
*.host0.app[9].source.displayStringTextFormat = "sent %p pk (%l)"
*.host0.app[9].messageLength = 18B
*.host0.app[9].sendInterval = 1ms
*.host0.app[9].startTime = 3500us
*.host0.app[9].stopTime = 4300us
*.host0.app[9].display-name = "type2_5"
*.host0.app[9].destPort = 1002
*.host0.app[10].typename = "UdpBasicApp"
*.host0.app[10].destAddresses = "host1"
*.host0.app[10].source.packetNameFormat = "%M-%m-%c"
*.host0.app[10].source.displayStringTextFormat = "sent %p pk (%l)"
*.host0.app[10].messageLength = 18B
*.host0.app[10].sendInterval = 1ms
*.host0.app[10].startTime = 4600us
*.host0.app[10].stopTime = 5100us
*.host0.app[10].display-name = "type2_5"
*.host0.app[10].destPort = 1002
*.host0.app[11].typename = "UdpBasicApp"
*.host0.app[11].destAddresses = "host1"
*.host0.app[11].source.packetNameFormat = "%M-%m-%c"
*.host0.app[11].source.displayStringTextFormat = "sent %p pk (%l)"
*.host0.app[11].messageLength = 18B
*.host0.app[11].sendInterval = 1ms
*.host0.app[11].startTime = 6100us
*.host0.app[11].stopTime = 6200us
*.host0.app[11].display-name = "type2_5"
*.host0.app[11].destPort = 1002
*.host0.app[12].typename = "UdpBasicApp"
*.host0.app[12].destAddresses = "host1"
*.host0.app[12].source.packetNameFormat = "%M-%m-%c"
*.host0.app[12].source.displayStringTextFormat = "sent %p pk (%l)"
*.host0.app[12].messageLength = 18B
*.host0.app[12].sendInterval = 1ms
*.host0.app[12].startTime = 6400us
*.host0.app[12].stopTime = 6600us
*.host0.app[12].display-name = "type2_5"
*.host0.app[12].destPort = 1002
*.host0.app[13].typename = "UdpBasicApp"
*.host0.app[13].destAddresses = "host1"
*.host0.app[13].source.packetNameFormat = "%M-%m-%c"
*.host0.app[13].source.displayStringTextFormat = "sent %p pk (%l)"
*.host0.app[13].messageLength = 18B
*.host0.app[13].sendInterval = 1ms
*.host0.app[13].startTime = 6900us
*.host0.app[13].stopTime = 8000us
*.host0.app[13].display-name = "type2_5"
*.host0.app[13].destPort = 1002
*.host0.app[14].typename = "UdpBasicApp"
*.host0.app[14].destAddresses = "host1"
*.host0.app[14].source.packetNameFormat = "%M-%m-%c"
*.host0.app[14].source.displayStringTextFormat = "sent %p pk (%l)"
*.host0.app[14].messageLength = 18B
*.host0.app[14].sendInterval = 1ms
*.host0.app[14].startTime = 8900us
*.host0.app[14].stopTime = 9300us
*.host0.app[14].display-name = "type2_5"
*.host0.app[14].destPort = 1002
*.host0.app[15].typename = "UdpSinkApp"
*.host0.app[15].io.localPort = 1002
*.host1.numApps = 3
*.host1.app[0].typename = "UdpSinkApp"
*.host1.app[0].io.localPort = 1000
*.host1.app[1].typename = "UdpSinkApp"
*.host1.app[1].io.localPort = 1001
*.host1.app[2].typename = "UdpSinkApp"
*.host1.app[2].io.localPort = 1002
*.host2.numApps = 12
*.host2.app[0].typename = "UdpSinkApp"
*.host2.app[0].io.localPort = 1000
*.host2.app[1].typename = "UdpSinkApp"
*.host2.app[1].io.localPort = 1001
*.host2.app[2].typename = "UdpBasicApp"
*.host2.app[2].destAddresses = "host1"
*.host2.app[2].source.packetNameFormat = "%M-%m-%c"
*.host2.app[2].source.displayStringTextFormat = "sent %p pk (%l)"
*.host2.app[2].messageLength = 14B
*.host2.app[2].sendInterval = 1ms
*.host2.app[2].startTime = 1300us
*.host2.app[2].stopTime = 3500us
*.host2.app[2].display-name = "type2_3"
*.host2.app[2].destPort = 1000
*.host2.app[3].typename = "UdpBasicApp"
*.host2.app[3].destAddresses = "host1"
*.host2.app[3].source.packetNameFormat = "%M-%m-%c"
*.host2.app[3].source.displayStringTextFormat = "sent %p pk (%l)"
*.host2.app[3].messageLength = 14B
*.host2.app[3].sendInterval = 1ms
*.host2.app[3].startTime = 4100us
*.host2.app[3].stopTime = 6400us
*.host2.app[3].display-name = "type2_3"
*.host2.app[3].destPort = 1000
*.host2.app[4].typename = "UdpBasicApp"
*.host2.app[4].destAddresses = "host1"
*.host2.app[4].source.packetNameFormat = "%M-%m-%c"
*.host2.app[4].source.displayStringTextFormat = "sent %p pk (%l)"
*.host2.app[4].messageLength = 14B
*.host2.app[4].sendInterval = 1ms
*.host2.app[4].startTime = 9100us
*.host2.app[4].stopTime = 9400us
*.host2.app[4].display-name = "type2_3"
*.host2.app[4].destPort = 1000
*.host2.app[5].typename = "UdpBasicApp"
*.host2.app[5].destAddresses = "host4"
*.host2.app[5].source.packetNameFormat = "%M-%m-%c"
*.host2.app[5].source.displayStringTextFormat = "sent %p pk (%l)"
*.host2.app[5].messageLength = 17B
*.host2.app[5].sendInterval = 1ms
*.host2.app[5].startTime = 0us
*.host2.app[5].stopTime = 1300us
*.host2.app[5].display-name = "type2_6"
*.host2.app[5].destPort = 1001
*.host2.app[6].typename = "UdpBasicApp"
*.host2.app[6].destAddresses = "host4"
*.host2.app[6].source.packetNameFormat = "%M-%m-%c"
*.host2.app[6].source.displayStringTextFormat = "sent %p pk (%l)"
*.host2.app[6].messageLength = 17B
*.host2.app[6].sendInterval = 1ms
*.host2.app[6].startTime = 1500us
*.host2.app[6].stopTime = 4000us
*.host2.app[6].display-name = "type2_6"
*.host2.app[6].destPort = 1001
*.host2.app[7].typename = "UdpBasicApp"
*.host2.app[7].destAddresses = "host4"
*.host2.app[7].source.packetNameFormat = "%M-%m-%c"
*.host2.app[7].source.displayStringTextFormat = "sent %p pk (%l)"
*.host2.app[7].messageLength = 17B
*.host2.app[7].sendInterval = 1ms
*.host2.app[7].startTime = 4400us
*.host2.app[7].stopTime = 4600us
*.host2.app[7].display-name = "type2_6"
*.host2.app[7].destPort = 1001
*.host2.app[8].typename = "UdpBasicApp"
*.host2.app[8].destAddresses = "host4"
*.host2.app[8].source.packetNameFormat = "%M-%m-%c"
*.host2.app[8].source.displayStringTextFormat = "sent %p pk (%l)"
*.host2.app[8].messageLength = 17B
*.host2.app[8].sendInterval = 1ms
*.host2.app[8].startTime = 4700us
*.host2.app[8].stopTime = 5800us
*.host2.app[8].display-name = "type2_6"
*.host2.app[8].destPort = 1001
*.host2.app[9].typename = "UdpBasicApp"
*.host2.app[9].destAddresses = "host4"
*.host2.app[9].source.packetNameFormat = "%M-%m-%c"
*.host2.app[9].source.displayStringTextFormat = "sent %p pk (%l)"
*.host2.app[9].messageLength = 17B
*.host2.app[9].sendInterval = 1ms
*.host2.app[9].startTime = 6000us
*.host2.app[9].stopTime = 6700us
*.host2.app[9].display-name = "type2_6"
*.host2.app[9].destPort = 1001
*.host2.app[10].typename = "UdpBasicApp"
*.host2.app[10].destAddresses = "host4"
*.host2.app[10].source.packetNameFormat = "%M-%m-%c"
*.host2.app[10].source.displayStringTextFormat = "sent %p pk (%l)"
*.host2.app[10].messageLength = 17B
*.host2.app[10].sendInterval = 1ms
*.host2.app[10].startTime = 7000us
*.host2.app[10].stopTime = 8400us
*.host2.app[10].display-name = "type2_6"
*.host2.app[10].destPort = 1001
*.host2.app[11].typename = "UdpBasicApp"
*.host2.app[11].destAddresses = "host4"
*.host2.app[11].source.packetNameFormat = "%M-%m-%c"
*.host2.app[11].source.displayStringTextFormat = "sent %p pk (%l)"
*.host2.app[11].messageLength = 17B
*.host2.app[11].sendInterval = 1ms
*.host2.app[11].startTime = 9200us
*.host2.app[11].stopTime = 9900us
*.host2.app[11].display-name = "type2_6"
*.host2.app[11].destPort = 1001
*.host3.numApps = 8
*.host3.app[0].typename = "UdpSourceApp"
*.host3.app[0].io.destAddress = "host0"
*.host3.app[0].source.packetNameFormat = "%M-%m-%c"
*.host3.app[0].source.displayStringTextFormat = "sent %p pk (%l)"
*.host3.app[0].source.packetLength = 12B
*.host3.app[0].source.productionInterval = 1ms
*.host3.app[0].display-name = "type1_0"
*.host3.app[0].io.destPort = 1000
*.host3.app[1].typename = "UdpBasicApp"
*.host3.app[1].destAddresses = "host0"
*.host3.app[1].source.packetNameFormat = "%M-%m-%c"
*.host3.app[1].source.displayStringTextFormat = "sent %p pk (%l)"
*.host3.app[1].messageLength = 24B
*.host3.app[1].sendInterval = 1ms
*.host3.app[1].startTime = 800us
*.host3.app[1].stopTime = 1300us
*.host3.app[1].display-name = "type2_7"
*.host3.app[1].destPort = 1002
*.host3.app[2].typename = "UdpBasicApp"
*.host3.app[2].destAddresses = "host0"
*.host3.app[2].source.packetNameFormat = "%M-%m-%c"
*.host3.app[2].source.displayStringTextFormat = "sent %p pk (%l)"
*.host3.app[2].messageLength = 24B
*.host3.app[2].sendInterval = 1ms
*.host3.app[2].startTime = 2700us
*.host3.app[2].stopTime = 4000us
*.host3.app[2].display-name = "type2_7"
*.host3.app[2].destPort = 1002
*.host3.app[3].typename = "UdpBasicApp"
*.host3.app[3].destAddresses = "host0"
*.host3.app[3].source.packetNameFormat = "%M-%m-%c"
*.host3.app[3].source.displayStringTextFormat = "sent %p pk (%l)"
*.host3.app[3].messageLength = 24B
*.host3.app[3].sendInterval = 1ms
*.host3.app[3].startTime = 4500us
*.host3.app[3].stopTime = 4600us
*.host3.app[3].display-name = "type2_7"
*.host3.app[3].destPort = 1002
*.host3.app[4].typename = "UdpBasicApp"
*.host3.app[4].destAddresses = "host0"
*.host3.app[4].source.packetNameFormat = "%M-%m-%c"
*.host3.app[4].source.displayStringTextFormat = "sent %p pk (%l)"
*.host3.app[4].messageLength = 24B
*.host3.app[4].sendInterval = 1ms
*.host3.app[4].startTime = 4700us
*.host3.app[4].stopTime = 5400us
*.host3.app[4].display-name = "type2_7"
*.host3.app[4].destPort = 1002
*.host3.app[5].typename = "UdpBasicApp"
*.host3.app[5].destAddresses = "host0"
*.host3.app[5].source.packetNameFormat = "%M-%m-%c"
*.host3.app[5].source.displayStringTextFormat = "sent %p pk (%l)"
*.host3.app[5].messageLength = 24B
*.host3.app[5].sendInterval = 1ms
*.host3.app[5].startTime = 7200us
*.host3.app[5].stopTime = 8300us
*.host3.app[5].display-name = "type2_7"
*.host3.app[5].destPort = 1002
*.host3.app[6].typename = "UdpBasicApp"
*.host3.app[6].destAddresses = "host0"
*.host3.app[6].source.packetNameFormat = "%M-%m-%c"
*.host3.app[6].source.displayStringTextFormat = "sent %p pk (%l)"
*.host3.app[6].messageLength = 24B
*.host3.app[6].sendInterval = 1ms
*.host3.app[6].startTime = 8400us
*.host3.app[6].stopTime = 9000us
*.host3.app[6].display-name = "type2_7"
*.host3.app[6].destPort = 1002
*.host3.app[7].typename = "UdpBasicApp"
*.host3.app[7].destAddresses = "host0"
*.host3.app[7].source.packetNameFormat = "%M-%m-%c"
*.host3.app[7].source.displayStringTextFormat = "sent %p pk (%l)"
*.host3.app[7].messageLength = 24B
*.host3.app[7].sendInterval = 1ms
*.host3.app[7].startTime = 9400us
*.host3.app[7].stopTime = 10000us
*.host3.app[7].display-name = "type2_7"
*.host3.app[7].destPort = 1002
*.host4.numApps = 24
*.host4.app[0].typename = "UdpSinkApp"
*.host4.app[0].io.localPort = 1000
*.host4.app[1].typename = "UdpBasicApp"
*.host4.app[1].destAddresses = "host2"
*.host4.app[1].source.packetNameFormat = "%M-%m-%c"
*.host4.app[1].source.displayStringTextFormat = "sent %p pk (%l)"
*.host4.app[1].messageLength = 15B
*.host4.app[1].sendInterval = 1ms
*.host4.app[1].startTime = 500us
*.host4.app[1].stopTime = 1600us
*.host4.app[1].display-name = "type2_1"
*.host4.app[1].destPort = 1001
*.host4.app[2].typename = "UdpBasicApp"
*.host4.app[2].destAddresses = "host2"
*.host4.app[2].source.packetNameFormat = "%M-%m-%c"
*.host4.app[2].source.displayStringTextFormat = "sent %p pk (%l)"
*.host4.app[2].messageLength = 15B
*.host4.app[2].sendInterval = 1ms
*.host4.app[2].startTime = 2500us
*.host4.app[2].stopTime = 2600us
*.host4.app[2].display-name = "type2_1"
*.host4.app[2].destPort = 1001
*.host4.app[3].typename = "UdpBasicApp"
*.host4.app[3].destAddresses = "host2"
*.host4.app[3].source.packetNameFormat = "%M-%m-%c"
*.host4.app[3].source.displayStringTextFormat = "sent %p pk (%l)"
*.host4.app[3].messageLength = 15B
*.host4.app[3].sendInterval = 1ms
*.host4.app[3].startTime = 2700us
*.host4.app[3].stopTime = 3300us
*.host4.app[3].display-name = "type2_1"
*.host4.app[3].destPort = 1001
*.host4.app[4].typename = "UdpBasicApp"
*.host4.app[4].destAddresses = "host2"
*.host4.app[4].source.packetNameFormat = "%M-%m-%c"
*.host4.app[4].source.displayStringTextFormat = "sent %p pk (%l)"
*.host4.app[4].messageLength = 15B
*.host4.app[4].sendInterval = 1ms
*.host4.app[4].startTime = 4000us
*.host4.app[4].stopTime = 4200us
*.host4.app[4].display-name = "type2_1"
*.host4.app[4].destPort = 1001
*.host4.app[5].typename = "UdpBasicApp"
*.host4.app[5].destAddresses = "host2"
*.host4.app[5].source.packetNameFormat = "%M-%m-%c"
*.host4.app[5].source.displayStringTextFormat = "sent %p pk (%l)"
*.host4.app[5].messageLength = 15B
*.host4.app[5].sendInterval = 1ms
*.host4.app[5].startTime = 5400us
*.host4.app[5].stopTime = 5900us
*.host4.app[5].display-name = "type2_1"
*.host4.app[5].destPort = 1001
*.host4.app[6].typename = "UdpBasicApp"
*.host4.app[6].destAddresses = "host2"
*.host4.app[6].source.packetNameFormat = "%M-%m-%c"
*.host4.app[6].source.displayStringTextFormat = "sent %p pk (%l)"
*.host4.app[6].messageLength = 15B
*.host4.app[6].sendInterval = 1ms
*.host4.app[6].startTime = 6100us
*.host4.app[6].stopTime = 8000us
*.host4.app[6].display-name = "type2_1"
*.host4.app[6].destPort = 1001
*.host4.app[7].typename = "UdpBasicApp"
*.host4.app[7].destAddresses = "host2"
*.host4.app[7].source.packetNameFormat = "%M-%m-%c"
*.host4.app[7].source.displayStringTextFormat = "sent %p pk (%l)"
*.host4.app[7].messageLength = 15B
*.host4.app[7].sendInterval = 1ms
*.host4.app[7].startTime = 8300us
*.host4.app[7].stopTime = 8500us
*.host4.app[7].display-name = "type2_1"
*.host4.app[7].destPort = 1001
*.host4.app[8].typename = "UdpBasicApp"
*.host4.app[8].destAddresses = "host2"
*.host4.app[8].source.packetNameFormat = "%M-%m-%c"
*.host4.app[8].source.displayStringTextFormat = "sent %p pk (%l)"
*.host4.app[8].messageLength = 15B
*.host4.app[8].sendInterval = 1ms
*.host4.app[8].startTime = 9200us
*.host4.app[8].stopTime = 10000us
*.host4.app[8].display-name = "type2_1"
*.host4.app[8].destPort = 1001
*.host4.app[9].typename = "UdpBasicApp"
*.host4.app[9].destAddresses = "host0"
*.host4.app[9].source.packetNameFormat = "%M-%m-%c"
*.host4.app[9].source.displayStringTextFormat = "sent %p pk (%l)"
*.host4.app[9].messageLength = 13B
*.host4.app[9].sendInterval = 1ms
*.host4.app[9].startTime = 700us
*.host4.app[9].stopTime = 900us
*.host4.app[9].display-name = "type2_2"
*.host4.app[9].destPort = 1001
*.host4.app[10].typename = "UdpBasicApp"
*.host4.app[10].destAddresses = "host0"
*.host4.app[10].source.packetNameFormat = "%M-%m-%c"
*.host4.app[10].source.displayStringTextFormat = "sent %p pk (%l)"
*.host4.app[10].messageLength = 13B
*.host4.app[10].sendInterval = 1ms
*.host4.app[10].startTime = 1200us
*.host4.app[10].stopTime = 1600us
*.host4.app[10].display-name = "type2_2"
*.host4.app[10].destPort = 1001
*.host4.app[11].typename = "UdpBasicApp"
*.host4.app[11].destAddresses = "host0"
*.host4.app[11].source.packetNameFormat = "%M-%m-%c"
*.host4.app[11].source.displayStringTextFormat = "sent %p pk (%l)"
*.host4.app[11].messageLength = 13B
*.host4.app[11].sendInterval = 1ms
*.host4.app[11].startTime = 2200us
*.host4.app[11].stopTime = 2300us
*.host4.app[11].display-name = "type2_2"
*.host4.app[11].destPort = 1001
*.host4.app[12].typename = "UdpBasicApp"
*.host4.app[12].destAddresses = "host0"
*.host4.app[12].source.packetNameFormat = "%M-%m-%c"
*.host4.app[12].source.displayStringTextFormat = "sent %p pk (%l)"
*.host4.app[12].messageLength = 13B
*.host4.app[12].sendInterval = 1ms
*.host4.app[12].startTime = 2400us
*.host4.app[12].stopTime = 3500us
*.host4.app[12].display-name = "type2_2"
*.host4.app[12].destPort = 1001
*.host4.app[13].typename = "UdpBasicApp"
*.host4.app[13].destAddresses = "host0"
*.host4.app[13].source.packetNameFormat = "%M-%m-%c"
*.host4.app[13].source.displayStringTextFormat = "sent %p pk (%l)"
*.host4.app[13].messageLength = 13B
*.host4.app[13].sendInterval = 1ms
*.host4.app[13].startTime = 3700us
*.host4.app[13].stopTime = 4100us
*.host4.app[13].display-name = "type2_2"
*.host4.app[13].destPort = 1001
*.host4.app[14].typename = "UdpBasicApp"
*.host4.app[14].destAddresses = "host0"
*.host4.app[14].source.packetNameFormat = "%M-%m-%c"
*.host4.app[14].source.displayStringTextFormat = "sent %p pk (%l)"
*.host4.app[14].messageLength = 13B
*.host4.app[14].sendInterval = 1ms
*.host4.app[14].startTime = 6300us
*.host4.app[14].stopTime = 7500us
*.host4.app[14].display-name = "type2_2"
*.host4.app[14].destPort = 1001
*.host4.app[15].typename = "UdpBasicApp"
*.host4.app[15].destAddresses = "host0"
*.host4.app[15].source.packetNameFormat = "%M-%m-%c"
*.host4.app[15].source.displayStringTextFormat = "sent %p pk (%l)"
*.host4.app[15].messageLength = 13B
*.host4.app[15].sendInterval = 1ms
*.host4.app[15].startTime = 8200us
*.host4.app[15].stopTime = 9200us
*.host4.app[15].display-name = "type2_2"
*.host4.app[15].destPort = 1001
*.host4.app[16].typename = "UdpBasicApp"
*.host4.app[16].destAddresses = "host0"
*.host4.app[16].source.packetNameFormat = "%M-%m-%c"
*.host4.app[16].source.displayStringTextFormat = "sent %p pk (%l)"
*.host4.app[16].messageLength = 13B
*.host4.app[16].sendInterval = 1ms
*.host4.app[16].startTime = 9500us
*.host4.app[16].stopTime = 9600us
*.host4.app[16].display-name = "type2_2"
*.host4.app[16].destPort = 1001
*.host4.app[17].typename = "UdpBasicApp"
*.host4.app[17].destAddresses = "host0"
*.host4.app[17].source.packetNameFormat = "%M-%m-%c"
*.host4.app[17].source.displayStringTextFormat = "sent %p pk (%l)"
*.host4.app[17].messageLength = 13B
*.host4.app[17].sendInterval = 1ms
*.host4.app[17].startTime = 9800us
*.host4.app[17].stopTime = 10000us
*.host4.app[17].display-name = "type2_2"
*.host4.app[17].destPort = 1001
*.host4.app[18].typename = "UdpBasicApp"
*.host4.app[18].destAddresses = "host1"
*.host4.app[18].source.packetNameFormat = "%M-%m-%c"
*.host4.app[18].source.displayStringTextFormat = "sent %p pk (%l)"
*.host4.app[18].messageLength = 19B
*.host4.app[18].sendInterval = 1ms
*.host4.app[18].startTime = 1100us
*.host4.app[18].stopTime = 1500us
*.host4.app[18].display-name = "type2_4"
*.host4.app[18].destPort = 1001
*.host4.app[19].typename = "UdpBasicApp"
*.host4.app[19].destAddresses = "host1"
*.host4.app[19].source.packetNameFormat = "%M-%m-%c"
*.host4.app[19].source.displayStringTextFormat = "sent %p pk (%l)"
*.host4.app[19].messageLength = 19B
*.host4.app[19].sendInterval = 1ms
*.host4.app[19].startTime = 3500us
*.host4.app[19].stopTime = 5300us
*.host4.app[19].display-name = "type2_4"
*.host4.app[19].destPort = 1001
*.host4.app[20].typename = "UdpBasicApp"
*.host4.app[20].destAddresses = "host1"
*.host4.app[20].source.packetNameFormat = "%M-%m-%c"
*.host4.app[20].source.displayStringTextFormat = "sent %p pk (%l)"
*.host4.app[20].messageLength = 19B
*.host4.app[20].sendInterval = 1ms
*.host4.app[20].startTime = 6100us
*.host4.app[20].stopTime = 6600us
*.host4.app[20].display-name = "type2_4"
*.host4.app[20].destPort = 1001
*.host4.app[21].typename = "UdpBasicApp"
*.host4.app[21].destAddresses = "host1"
*.host4.app[21].source.packetNameFormat = "%M-%m-%c"
*.host4.app[21].source.displayStringTextFormat = "sent %p pk (%l)"
*.host4.app[21].messageLength = 19B
*.host4.app[21].sendInterval = 1ms
*.host4.app[21].startTime = 7400us
*.host4.app[21].stopTime = 8100us
*.host4.app[21].display-name = "type2_4"
*.host4.app[21].destPort = 1001
*.host4.app[22].typename = "UdpBasicApp"
*.host4.app[22].destAddresses = "host1"
*.host4.app[22].source.packetNameFormat = "%M-%m-%c"
*.host4.app[22].source.displayStringTextFormat = "sent %p pk (%l)"
*.host4.app[22].messageLength = 19B
*.host4.app[22].sendInterval = 1ms
*.host4.app[22].startTime = 9700us
*.host4.app[22].stopTime = 10000us
*.host4.app[22].display-name = "type2_4"
*.host4.app[22].destPort = 1001
*.host4.app[23].typename = "UdpSinkApp"
*.host4.app[23].io.localPort = 1001
*.streamRedundancyConfigurator.configuration = [
	{
		name: "S1-0",
		packetFilter: "*-type1_0-*",
		source: "host3",
		destination: "host0",
		trees: [[["host3", "switch3", "switch4", "switch2", "switch0", "host0"]]]
	},
	{
		name: "S1-1",
		packetFilter: "*-type1_1-*",
		source: "host0",
		destination: "host2",
		trees: [[["host0", "switch0", "switch2", "host2"]]]
	},
	{
		name: "S2-0",
		packetFilter: "*-type2_0-*",
		source: "host0",
		destination: "host4",
		trees: [[["host0", "switch0", "switch4", "host4"]]]
	},
	{
		name: "S2-1",
		packetFilter: "*-type2_1-*",
		source: "host4",
		destination: "host2",
		trees: [[["host4", "switch4", "switch2", "host2"]]]
	},
	{
		name: "S2-2",
		packetFilter: "*-type2_2-*",
		source: "host4",
		destination: "host0",
		trees: [[["host4", "switch4", "switch2", "switch0", "host0"]]]
	},
	{
		name: "S2-3",
		packetFilter: "*-type2_3-*",
		source: "host2",
		destination: "host1",
		trees: [[["host2", "switch2", "switch1", "host1"]]]
	},
	{
		name: "S2-4",
		packetFilter: "*-type2_4-*",
		source: "host4",
		destination: "host1",
		trees: [[["host4", "switch4", "switch2", "switch1", "host1"]]]
	},
	{
		name: "S2-5",
		packetFilter: "*-type2_5-*",
		source: "host0",
		destination: "host1",
		trees: [[["host0", "switch0", "switch4", "switch2", "switch1", "host1"]]]
	},
	{
		name: "S2-6",
		packetFilter: "*-type2_6-*",
		source: "host2",
		destination: "host4",
		trees: [[["host2", "switch2", "switch0", "switch4", "host4"]]]
	},
	{
		name: "S2-7",
		packetFilter: "*-type2_7-*",
		source: "host3",
		destination: "host0",
		trees: [[["host3", "switch3", "switch4", "switch2", "switch0", "host0"]]]
	}]
	

