[General]
network = TSN_multipath
sim-time-limit = 100ms
*.macForwardingTableConfigurator.typename = ""
*.*.hasStreamRedundancy = true
*.*.bridging.streamRelay.typename = "StreamRelayLayer"
*.*.bridging.streamCoder.typename = "StreamCoderLayer"
*.streamRedundancyConfigurator.typename = "StreamRedundancyConfigurator"
*.host0.eth[0].bitrate = 1000Mbps
*.switch0.eth[0].bitrate = 1000Mbps
*.switch0.eth[1].bitrate = 2300Mbps
*.switch0.eth[2].bitrate = 2000Mbps
*.switch0.eth[3].bitrate = 2000Mbps
*.switch0.eth[4].bitrate = 2200Mbps
*.switch0.eth[5].bitrate = 2300Mbps
*.host1.eth[0].bitrate = 1000Mbps
*.switch1.eth[0].bitrate = 1000Mbps
*.switch1.eth[1].bitrate = 2400Mbps
*.switch1.eth[2].bitrate = 2100Mbps
*.switch1.eth[3].bitrate = 2200Mbps
*.switch1.eth[4].bitrate = 1600Mbps
*.host2.eth[0].bitrate = 1000Mbps
*.switch2.eth[0].bitrate = 1000Mbps
*.switch2.eth[1].bitrate = 2000Mbps
*.switch2.eth[2].bitrate = 2100Mbps
*.switch2.eth[3].bitrate = 2400Mbps
*.host3.eth[0].bitrate = 1000Mbps
*.switch3.eth[0].bitrate = 1000Mbps
*.switch3.eth[1].bitrate = 2300Mbps
*.switch3.eth[2].bitrate = 2200Mbps
*.switch3.eth[3].bitrate = 2200Mbps
*.host4.eth[0].bitrate = 1000Mbps
*.switch4.eth[0].bitrate = 1000Mbps
*.switch4.eth[1].bitrate = 2000Mbps
*.switch4.eth[2].bitrate = 2400Mbps
*.switch4.eth[3].bitrate = 2300Mbps
*.switch4.eth[4].bitrate = 1600Mbps
*.switch4.eth[5].bitrate = 2400Mbps
*.host0.numApps = 18
*.host0.app[0].typename = "UdpSinkApp"
*.host0.app[0].io.localPort = 1000
*.host0.app[1].typename = "UdpBasicApp"
*.host0.app[1].destAddresses = "host3"
*.host0.app[1].source.packetNameFormat = "%M-%m-%c"
*.host0.app[1].source.displayStringTextFormat = "sent %p pk (%l)"
*.host0.app[1].messageLength = 23B
*.host0.app[1].sendInterval = 1ms
*.host0.app[1].startTime = 13ms
*.host0.app[1].stopTime = 21ms
*.host0.app[1].display-name = "type2_0"
*.host0.app[1].destPort = 1000
*.host0.app[2].typename = "UdpBasicApp"
*.host0.app[2].destAddresses = "host3"
*.host0.app[2].source.packetNameFormat = "%M-%m-%c"
*.host0.app[2].source.displayStringTextFormat = "sent %p pk (%l)"
*.host0.app[2].messageLength = 23B
*.host0.app[2].sendInterval = 1ms
*.host0.app[2].startTime = 36ms
*.host0.app[2].stopTime = 48ms
*.host0.app[2].display-name = "type2_0"
*.host0.app[2].destPort = 1000
*.host0.app[3].typename = "UdpBasicApp"
*.host0.app[3].destAddresses = "host3"
*.host0.app[3].source.packetNameFormat = "%M-%m-%c"
*.host0.app[3].source.displayStringTextFormat = "sent %p pk (%l)"
*.host0.app[3].messageLength = 23B
*.host0.app[3].sendInterval = 1ms
*.host0.app[3].startTime = 53ms
*.host0.app[3].stopTime = 66ms
*.host0.app[3].display-name = "type2_0"
*.host0.app[3].destPort = 1000
*.host0.app[4].typename = "UdpBasicApp"
*.host0.app[4].destAddresses = "host3"
*.host0.app[4].source.packetNameFormat = "%M-%m-%c"
*.host0.app[4].source.displayStringTextFormat = "sent %p pk (%l)"
*.host0.app[4].messageLength = 23B
*.host0.app[4].sendInterval = 1ms
*.host0.app[4].startTime = 79ms
*.host0.app[4].stopTime = 80ms
*.host0.app[4].display-name = "type2_0"
*.host0.app[4].destPort = 1000
*.host0.app[5].typename = "UdpBasicApp"
*.host0.app[5].destAddresses = "host3"
*.host0.app[5].source.packetNameFormat = "%M-%m-%c"
*.host0.app[5].source.displayStringTextFormat = "sent %p pk (%l)"
*.host0.app[5].messageLength = 23B
*.host0.app[5].sendInterval = 1ms
*.host0.app[5].startTime = 92ms
*.host0.app[5].stopTime = 100ms
*.host0.app[5].display-name = "type2_0"
*.host0.app[5].destPort = 1000
*.host0.app[6].typename = "UdpBasicApp"
*.host0.app[6].destAddresses = "host4"
*.host0.app[6].source.packetNameFormat = "%M-%m-%c"
*.host0.app[6].source.displayStringTextFormat = "sent %p pk (%l)"
*.host0.app[6].messageLength = 21B
*.host0.app[6].sendInterval = 1ms
*.host0.app[6].startTime = 10ms
*.host0.app[6].stopTime = 19ms
*.host0.app[6].display-name = "type2_1"
*.host0.app[6].destPort = 1000
*.host0.app[7].typename = "UdpBasicApp"
*.host0.app[7].destAddresses = "host4"
*.host0.app[7].source.packetNameFormat = "%M-%m-%c"
*.host0.app[7].source.displayStringTextFormat = "sent %p pk (%l)"
*.host0.app[7].messageLength = 21B
*.host0.app[7].sendInterval = 1ms
*.host0.app[7].startTime = 22ms
*.host0.app[7].stopTime = 26ms
*.host0.app[7].display-name = "type2_1"
*.host0.app[7].destPort = 1000
*.host0.app[8].typename = "UdpBasicApp"
*.host0.app[8].destAddresses = "host4"
*.host0.app[8].source.packetNameFormat = "%M-%m-%c"
*.host0.app[8].source.displayStringTextFormat = "sent %p pk (%l)"
*.host0.app[8].messageLength = 21B
*.host0.app[8].sendInterval = 1ms
*.host0.app[8].startTime = 34ms
*.host0.app[8].stopTime = 35ms
*.host0.app[8].display-name = "type2_1"
*.host0.app[8].destPort = 1000
*.host0.app[9].typename = "UdpBasicApp"
*.host0.app[9].destAddresses = "host4"
*.host0.app[9].source.packetNameFormat = "%M-%m-%c"
*.host0.app[9].source.displayStringTextFormat = "sent %p pk (%l)"
*.host0.app[9].messageLength = 21B
*.host0.app[9].sendInterval = 1ms
*.host0.app[9].startTime = 38ms
*.host0.app[9].stopTime = 40ms
*.host0.app[9].display-name = "type2_1"
*.host0.app[9].destPort = 1000
*.host0.app[10].typename = "UdpBasicApp"
*.host0.app[10].destAddresses = "host4"
*.host0.app[10].source.packetNameFormat = "%M-%m-%c"
*.host0.app[10].source.displayStringTextFormat = "sent %p pk (%l)"
*.host0.app[10].messageLength = 21B
*.host0.app[10].sendInterval = 1ms
*.host0.app[10].startTime = 41ms
*.host0.app[10].stopTime = 42ms
*.host0.app[10].display-name = "type2_1"
*.host0.app[10].destPort = 1000
*.host0.app[11].typename = "UdpBasicApp"
*.host0.app[11].destAddresses = "host4"
*.host0.app[11].source.packetNameFormat = "%M-%m-%c"
*.host0.app[11].source.displayStringTextFormat = "sent %p pk (%l)"
*.host0.app[11].messageLength = 21B
*.host0.app[11].sendInterval = 1ms
*.host0.app[11].startTime = 43ms
*.host0.app[11].stopTime = 57ms
*.host0.app[11].display-name = "type2_1"
*.host0.app[11].destPort = 1000
*.host0.app[12].typename = "UdpBasicApp"
*.host0.app[12].destAddresses = "host4"
*.host0.app[12].source.packetNameFormat = "%M-%m-%c"
*.host0.app[12].source.displayStringTextFormat = "sent %p pk (%l)"
*.host0.app[12].messageLength = 21B
*.host0.app[12].sendInterval = 1ms
*.host0.app[12].startTime = 77ms
*.host0.app[12].stopTime = 100ms
*.host0.app[12].display-name = "type2_1"
*.host0.app[12].destPort = 1000
*.host0.app[13].typename = "UdpSinkApp"
*.host0.app[13].io.localPort = 1001
*.host0.app[14].typename = "UdpBasicApp"
*.host0.app[14].destAddresses = "host4"
*.host0.app[14].source.packetNameFormat = "%M-%m-%c"
*.host0.app[14].source.displayStringTextFormat = "sent %p pk (%l)"
*.host0.app[14].messageLength = 22B
*.host0.app[14].sendInterval = 1ms
*.host0.app[14].startTime = 57ms
*.host0.app[14].stopTime = 69ms
*.host0.app[14].display-name = "type2_5"
*.host0.app[14].destPort = 1002
*.host0.app[15].typename = "UdpBasicApp"
*.host0.app[15].destAddresses = "host4"
*.host0.app[15].source.packetNameFormat = "%M-%m-%c"
*.host0.app[15].source.displayStringTextFormat = "sent %p pk (%l)"
*.host0.app[15].messageLength = 22B
*.host0.app[15].sendInterval = 1ms
*.host0.app[15].startTime = 81ms
*.host0.app[15].stopTime = 92ms
*.host0.app[15].display-name = "type2_5"
*.host0.app[15].destPort = 1002
*.host0.app[16].typename = "UdpBasicApp"
*.host0.app[16].destAddresses = "host4"
*.host0.app[16].source.packetNameFormat = "%M-%m-%c"
*.host0.app[16].source.displayStringTextFormat = "sent %p pk (%l)"
*.host0.app[16].messageLength = 22B
*.host0.app[16].sendInterval = 1ms
*.host0.app[16].startTime = 94ms
*.host0.app[16].stopTime = 95ms
*.host0.app[16].display-name = "type2_5"
*.host0.app[16].destPort = 1002
*.host0.app[17].typename = "UdpBasicApp"
*.host0.app[17].destAddresses = "host4"
*.host0.app[17].source.packetNameFormat = "%M-%m-%c"
*.host0.app[17].source.displayStringTextFormat = "sent %p pk (%l)"
*.host0.app[17].messageLength = 22B
*.host0.app[17].sendInterval = 1ms
*.host0.app[17].startTime = 97ms
*.host0.app[17].stopTime = 100ms
*.host0.app[17].display-name = "type2_5"
*.host0.app[17].destPort = 1002
*.host1.numApps = 21
*.host1.app[0].typename = "UdpSinkApp"
*.host1.app[0].io.localPort = 1000
*.host1.app[1].typename = "UdpBasicApp"
*.host1.app[1].destAddresses = "host0"
*.host1.app[1].source.packetNameFormat = "%M-%m-%c"
*.host1.app[1].source.displayStringTextFormat = "sent %p pk (%l)"
*.host1.app[1].messageLength = 13B
*.host1.app[1].sendInterval = 1ms
*.host1.app[1].startTime = 4ms
*.host1.app[1].stopTime = 9ms
*.host1.app[1].display-name = "type2_2"
*.host1.app[1].destPort = 1001
*.host1.app[2].typename = "UdpBasicApp"
*.host1.app[2].destAddresses = "host0"
*.host1.app[2].source.packetNameFormat = "%M-%m-%c"
*.host1.app[2].source.displayStringTextFormat = "sent %p pk (%l)"
*.host1.app[2].messageLength = 13B
*.host1.app[2].sendInterval = 1ms
*.host1.app[2].startTime = 12ms
*.host1.app[2].stopTime = 16ms
*.host1.app[2].display-name = "type2_2"
*.host1.app[2].destPort = 1001
*.host1.app[3].typename = "UdpBasicApp"
*.host1.app[3].destAddresses = "host0"
*.host1.app[3].source.packetNameFormat = "%M-%m-%c"
*.host1.app[3].source.displayStringTextFormat = "sent %p pk (%l)"
*.host1.app[3].messageLength = 13B
*.host1.app[3].sendInterval = 1ms
*.host1.app[3].startTime = 36ms
*.host1.app[3].stopTime = 45ms
*.host1.app[3].display-name = "type2_2"
*.host1.app[3].destPort = 1001
*.host1.app[4].typename = "UdpBasicApp"
*.host1.app[4].destAddresses = "host0"
*.host1.app[4].source.packetNameFormat = "%M-%m-%c"
*.host1.app[4].source.displayStringTextFormat = "sent %p pk (%l)"
*.host1.app[4].messageLength = 13B
*.host1.app[4].sendInterval = 1ms
*.host1.app[4].startTime = 56ms
*.host1.app[4].stopTime = 93ms
*.host1.app[4].display-name = "type2_2"
*.host1.app[4].destPort = 1001
*.host1.app[5].typename = "UdpBasicApp"
*.host1.app[5].destAddresses = "host0"
*.host1.app[5].source.packetNameFormat = "%M-%m-%c"
*.host1.app[5].source.displayStringTextFormat = "sent %p pk (%l)"
*.host1.app[5].messageLength = 13B
*.host1.app[5].sendInterval = 1ms
*.host1.app[5].startTime = 97ms
*.host1.app[5].stopTime = 100ms
*.host1.app[5].display-name = "type2_2"
*.host1.app[5].destPort = 1001
*.host1.app[6].typename = "UdpBasicApp"
*.host1.app[6].destAddresses = "host2"
*.host1.app[6].source.packetNameFormat = "%M-%m-%c"
*.host1.app[6].source.displayStringTextFormat = "sent %p pk (%l)"
*.host1.app[6].messageLength = 13B
*.host1.app[6].sendInterval = 1ms
*.host1.app[6].startTime = 21ms
*.host1.app[6].stopTime = 25ms
*.host1.app[6].display-name = "type2_6"
*.host1.app[6].destPort = 1001
*.host1.app[7].typename = "UdpBasicApp"
*.host1.app[7].destAddresses = "host2"
*.host1.app[7].source.packetNameFormat = "%M-%m-%c"
*.host1.app[7].source.displayStringTextFormat = "sent %p pk (%l)"
*.host1.app[7].messageLength = 13B
*.host1.app[7].sendInterval = 1ms
*.host1.app[7].startTime = 27ms
*.host1.app[7].stopTime = 31ms
*.host1.app[7].display-name = "type2_6"
*.host1.app[7].destPort = 1001
*.host1.app[8].typename = "UdpBasicApp"
*.host1.app[8].destAddresses = "host2"
*.host1.app[8].source.packetNameFormat = "%M-%m-%c"
*.host1.app[8].source.displayStringTextFormat = "sent %p pk (%l)"
*.host1.app[8].messageLength = 13B
*.host1.app[8].sendInterval = 1ms
*.host1.app[8].startTime = 42ms
*.host1.app[8].stopTime = 48ms
*.host1.app[8].display-name = "type2_6"
*.host1.app[8].destPort = 1001
*.host1.app[9].typename = "UdpBasicApp"
*.host1.app[9].destAddresses = "host2"
*.host1.app[9].source.packetNameFormat = "%M-%m-%c"
*.host1.app[9].source.displayStringTextFormat = "sent %p pk (%l)"
*.host1.app[9].messageLength = 13B
*.host1.app[9].sendInterval = 1ms
*.host1.app[9].startTime = 63ms
*.host1.app[9].stopTime = 64ms
*.host1.app[9].display-name = "type2_6"
*.host1.app[9].destPort = 1001
*.host1.app[10].typename = "UdpBasicApp"
*.host1.app[10].destAddresses = "host2"
*.host1.app[10].source.packetNameFormat = "%M-%m-%c"
*.host1.app[10].source.displayStringTextFormat = "sent %p pk (%l)"
*.host1.app[10].messageLength = 13B
*.host1.app[10].sendInterval = 1ms
*.host1.app[10].startTime = 68ms
*.host1.app[10].stopTime = 74ms
*.host1.app[10].display-name = "type2_6"
*.host1.app[10].destPort = 1001
*.host1.app[11].typename = "UdpBasicApp"
*.host1.app[11].destAddresses = "host2"
*.host1.app[11].source.packetNameFormat = "%M-%m-%c"
*.host1.app[11].source.displayStringTextFormat = "sent %p pk (%l)"
*.host1.app[11].messageLength = 13B
*.host1.app[11].sendInterval = 1ms
*.host1.app[11].startTime = 75ms
*.host1.app[11].stopTime = 79ms
*.host1.app[11].display-name = "type2_6"
*.host1.app[11].destPort = 1001
*.host1.app[12].typename = "UdpBasicApp"
*.host1.app[12].destAddresses = "host2"
*.host1.app[12].source.packetNameFormat = "%M-%m-%c"
*.host1.app[12].source.displayStringTextFormat = "sent %p pk (%l)"
*.host1.app[12].messageLength = 13B
*.host1.app[12].sendInterval = 1ms
*.host1.app[12].startTime = 86ms
*.host1.app[12].stopTime = 100ms
*.host1.app[12].display-name = "type2_6"
*.host1.app[12].destPort = 1001
*.host1.app[13].typename = "UdpBasicApp"
*.host1.app[13].destAddresses = "host2"
*.host1.app[13].source.packetNameFormat = "%M-%m-%c"
*.host1.app[13].source.displayStringTextFormat = "sent %p pk (%l)"
*.host1.app[13].messageLength = 22B
*.host1.app[13].sendInterval = 1ms
*.host1.app[13].startTime = 3ms
*.host1.app[13].stopTime = 7ms
*.host1.app[13].display-name = "type2_7"
*.host1.app[13].destPort = 1002
*.host1.app[14].typename = "UdpBasicApp"
*.host1.app[14].destAddresses = "host2"
*.host1.app[14].source.packetNameFormat = "%M-%m-%c"
*.host1.app[14].source.displayStringTextFormat = "sent %p pk (%l)"
*.host1.app[14].messageLength = 22B
*.host1.app[14].sendInterval = 1ms
*.host1.app[14].startTime = 10ms
*.host1.app[14].stopTime = 17ms
*.host1.app[14].display-name = "type2_7"
*.host1.app[14].destPort = 1002
*.host1.app[15].typename = "UdpBasicApp"
*.host1.app[15].destAddresses = "host2"
*.host1.app[15].source.packetNameFormat = "%M-%m-%c"
*.host1.app[15].source.displayStringTextFormat = "sent %p pk (%l)"
*.host1.app[15].messageLength = 22B
*.host1.app[15].sendInterval = 1ms
*.host1.app[15].startTime = 27ms
*.host1.app[15].stopTime = 40ms
*.host1.app[15].display-name = "type2_7"
*.host1.app[15].destPort = 1002
*.host1.app[16].typename = "UdpBasicApp"
*.host1.app[16].destAddresses = "host2"
*.host1.app[16].source.packetNameFormat = "%M-%m-%c"
*.host1.app[16].source.displayStringTextFormat = "sent %p pk (%l)"
*.host1.app[16].messageLength = 22B
*.host1.app[16].sendInterval = 1ms
*.host1.app[16].startTime = 41ms
*.host1.app[16].stopTime = 52ms
*.host1.app[16].display-name = "type2_7"
*.host1.app[16].destPort = 1002
*.host1.app[17].typename = "UdpBasicApp"
*.host1.app[17].destAddresses = "host2"
*.host1.app[17].source.packetNameFormat = "%M-%m-%c"
*.host1.app[17].source.displayStringTextFormat = "sent %p pk (%l)"
*.host1.app[17].messageLength = 22B
*.host1.app[17].sendInterval = 1ms
*.host1.app[17].startTime = 63ms
*.host1.app[17].stopTime = 66ms
*.host1.app[17].display-name = "type2_7"
*.host1.app[17].destPort = 1002
*.host1.app[18].typename = "UdpBasicApp"
*.host1.app[18].destAddresses = "host2"
*.host1.app[18].source.packetNameFormat = "%M-%m-%c"
*.host1.app[18].source.displayStringTextFormat = "sent %p pk (%l)"
*.host1.app[18].messageLength = 22B
*.host1.app[18].sendInterval = 1ms
*.host1.app[18].startTime = 72ms
*.host1.app[18].stopTime = 77ms
*.host1.app[18].display-name = "type2_7"
*.host1.app[18].destPort = 1002
*.host1.app[19].typename = "UdpBasicApp"
*.host1.app[19].destAddresses = "host2"
*.host1.app[19].source.packetNameFormat = "%M-%m-%c"
*.host1.app[19].source.displayStringTextFormat = "sent %p pk (%l)"
*.host1.app[19].messageLength = 22B
*.host1.app[19].sendInterval = 1ms
*.host1.app[19].startTime = 92ms
*.host1.app[19].stopTime = 93ms
*.host1.app[19].display-name = "type2_7"
*.host1.app[19].destPort = 1002
*.host1.app[20].typename = "UdpBasicApp"
*.host1.app[20].destAddresses = "host2"
*.host1.app[20].source.packetNameFormat = "%M-%m-%c"
*.host1.app[20].source.displayStringTextFormat = "sent %p pk (%l)"
*.host1.app[20].messageLength = 22B
*.host1.app[20].sendInterval = 1ms
*.host1.app[20].startTime = 96ms
*.host1.app[20].stopTime = 97ms
*.host1.app[20].display-name = "type2_7"
*.host1.app[20].destPort = 1002
*.host2.numApps = 3
*.host2.app[0].typename = "UdpSinkApp"
*.host2.app[0].io.localPort = 1000
*.host2.app[1].typename = "UdpSinkApp"
*.host2.app[1].io.localPort = 1001
*.host2.app[2].typename = "UdpSinkApp"
*.host2.app[2].io.localPort = 1002
*.host3.numApps = 16
*.host3.app[0].typename = "UdpSinkApp"
*.host3.app[0].io.localPort = 1000
*.host3.app[1].typename = "UdpBasicApp"
*.host3.app[1].destAddresses = "host2"
*.host3.app[1].source.packetNameFormat = "%M-%m-%c"
*.host3.app[1].source.displayStringTextFormat = "sent %p pk (%l)"
*.host3.app[1].messageLength = 17B
*.host3.app[1].sendInterval = 1ms
*.host3.app[1].startTime = 6ms
*.host3.app[1].stopTime = 13ms
*.host3.app[1].display-name = "type2_3"
*.host3.app[1].destPort = 1000
*.host3.app[2].typename = "UdpBasicApp"
*.host3.app[2].destAddresses = "host2"
*.host3.app[2].source.packetNameFormat = "%M-%m-%c"
*.host3.app[2].source.displayStringTextFormat = "sent %p pk (%l)"
*.host3.app[2].messageLength = 17B
*.host3.app[2].sendInterval = 1ms
*.host3.app[2].startTime = 16ms
*.host3.app[2].stopTime = 20ms
*.host3.app[2].display-name = "type2_3"
*.host3.app[2].destPort = 1000
*.host3.app[3].typename = "UdpBasicApp"
*.host3.app[3].destAddresses = "host2"
*.host3.app[3].source.packetNameFormat = "%M-%m-%c"
*.host3.app[3].source.displayStringTextFormat = "sent %p pk (%l)"
*.host3.app[3].messageLength = 17B
*.host3.app[3].sendInterval = 1ms
*.host3.app[3].startTime = 22ms
*.host3.app[3].stopTime = 32ms
*.host3.app[3].display-name = "type2_3"
*.host3.app[3].destPort = 1000
*.host3.app[4].typename = "UdpBasicApp"
*.host3.app[4].destAddresses = "host2"
*.host3.app[4].source.packetNameFormat = "%M-%m-%c"
*.host3.app[4].source.displayStringTextFormat = "sent %p pk (%l)"
*.host3.app[4].messageLength = 17B
*.host3.app[4].sendInterval = 1ms
*.host3.app[4].startTime = 41ms
*.host3.app[4].stopTime = 49ms
*.host3.app[4].display-name = "type2_3"
*.host3.app[4].destPort = 1000
*.host3.app[5].typename = "UdpBasicApp"
*.host3.app[5].destAddresses = "host2"
*.host3.app[5].source.packetNameFormat = "%M-%m-%c"
*.host3.app[5].source.displayStringTextFormat = "sent %p pk (%l)"
*.host3.app[5].messageLength = 17B
*.host3.app[5].sendInterval = 1ms
*.host3.app[5].startTime = 54ms
*.host3.app[5].stopTime = 66ms
*.host3.app[5].display-name = "type2_3"
*.host3.app[5].destPort = 1000
*.host3.app[6].typename = "UdpBasicApp"
*.host3.app[6].destAddresses = "host2"
*.host3.app[6].source.packetNameFormat = "%M-%m-%c"
*.host3.app[6].source.displayStringTextFormat = "sent %p pk (%l)"
*.host3.app[6].messageLength = 17B
*.host3.app[6].sendInterval = 1ms
*.host3.app[6].startTime = 72ms
*.host3.app[6].stopTime = 100ms
*.host3.app[6].display-name = "type2_3"
*.host3.app[6].destPort = 1000
*.host3.app[7].typename = "UdpBasicApp"
*.host3.app[7].destAddresses = "host4"
*.host3.app[7].source.packetNameFormat = "%M-%m-%c"
*.host3.app[7].source.displayStringTextFormat = "sent %p pk (%l)"
*.host3.app[7].messageLength = 21B
*.host3.app[7].sendInterval = 1ms
*.host3.app[7].startTime = 12ms
*.host3.app[7].stopTime = 16ms
*.host3.app[7].display-name = "type2_4"
*.host3.app[7].destPort = 1001
*.host3.app[8].typename = "UdpBasicApp"
*.host3.app[8].destAddresses = "host4"
*.host3.app[8].source.packetNameFormat = "%M-%m-%c"
*.host3.app[8].source.displayStringTextFormat = "sent %p pk (%l)"
*.host3.app[8].messageLength = 21B
*.host3.app[8].sendInterval = 1ms
*.host3.app[8].startTime = 21ms
*.host3.app[8].stopTime = 23ms
*.host3.app[8].display-name = "type2_4"
*.host3.app[8].destPort = 1001
*.host3.app[9].typename = "UdpBasicApp"
*.host3.app[9].destAddresses = "host4"
*.host3.app[9].source.packetNameFormat = "%M-%m-%c"
*.host3.app[9].source.displayStringTextFormat = "sent %p pk (%l)"
*.host3.app[9].messageLength = 21B
*.host3.app[9].sendInterval = 1ms
*.host3.app[9].startTime = 28ms
*.host3.app[9].stopTime = 36ms
*.host3.app[9].display-name = "type2_4"
*.host3.app[9].destPort = 1001
*.host3.app[10].typename = "UdpBasicApp"
*.host3.app[10].destAddresses = "host4"
*.host3.app[10].source.packetNameFormat = "%M-%m-%c"
*.host3.app[10].source.displayStringTextFormat = "sent %p pk (%l)"
*.host3.app[10].messageLength = 21B
*.host3.app[10].sendInterval = 1ms
*.host3.app[10].startTime = 37ms
*.host3.app[10].stopTime = 40ms
*.host3.app[10].display-name = "type2_4"
*.host3.app[10].destPort = 1001
*.host3.app[11].typename = "UdpBasicApp"
*.host3.app[11].destAddresses = "host4"
*.host3.app[11].source.packetNameFormat = "%M-%m-%c"
*.host3.app[11].source.displayStringTextFormat = "sent %p pk (%l)"
*.host3.app[11].messageLength = 21B
*.host3.app[11].sendInterval = 1ms
*.host3.app[11].startTime = 53ms
*.host3.app[11].stopTime = 58ms
*.host3.app[11].display-name = "type2_4"
*.host3.app[11].destPort = 1001
*.host3.app[12].typename = "UdpBasicApp"
*.host3.app[12].destAddresses = "host4"
*.host3.app[12].source.packetNameFormat = "%M-%m-%c"
*.host3.app[12].source.displayStringTextFormat = "sent %p pk (%l)"
*.host3.app[12].messageLength = 21B
*.host3.app[12].sendInterval = 1ms
*.host3.app[12].startTime = 59ms
*.host3.app[12].stopTime = 60ms
*.host3.app[12].display-name = "type2_4"
*.host3.app[12].destPort = 1001
*.host3.app[13].typename = "UdpBasicApp"
*.host3.app[13].destAddresses = "host4"
*.host3.app[13].source.packetNameFormat = "%M-%m-%c"
*.host3.app[13].source.displayStringTextFormat = "sent %p pk (%l)"
*.host3.app[13].messageLength = 21B
*.host3.app[13].sendInterval = 1ms
*.host3.app[13].startTime = 61ms
*.host3.app[13].stopTime = 62ms
*.host3.app[13].display-name = "type2_4"
*.host3.app[13].destPort = 1001
*.host3.app[14].typename = "UdpBasicApp"
*.host3.app[14].destAddresses = "host4"
*.host3.app[14].source.packetNameFormat = "%M-%m-%c"
*.host3.app[14].source.displayStringTextFormat = "sent %p pk (%l)"
*.host3.app[14].messageLength = 21B
*.host3.app[14].sendInterval = 1ms
*.host3.app[14].startTime = 72ms
*.host3.app[14].stopTime = 82ms
*.host3.app[14].display-name = "type2_4"
*.host3.app[14].destPort = 1001
*.host3.app[15].typename = "UdpBasicApp"
*.host3.app[15].destAddresses = "host4"
*.host3.app[15].source.packetNameFormat = "%M-%m-%c"
*.host3.app[15].source.displayStringTextFormat = "sent %p pk (%l)"
*.host3.app[15].messageLength = 21B
*.host3.app[15].sendInterval = 1ms
*.host3.app[15].startTime = 91ms
*.host3.app[15].stopTime = 94ms
*.host3.app[15].display-name = "type2_4"
*.host3.app[15].destPort = 1001
*.host4.numApps = 5
*.host4.app[0].typename = "UdpSourceApp"
*.host4.app[0].io.destAddress = "host1"
*.host4.app[0].source.packetNameFormat = "%M-%m-%c"
*.host4.app[0].source.displayStringTextFormat = "sent %p pk (%l)"
*.host4.app[0].source.packetLength = 22B
*.host4.app[0].source.productionInterval = 1ms
*.host4.app[0].display-name = "type1_0"
*.host4.app[0].io.destPort = 1000
*.host4.app[1].typename = "UdpSourceApp"
*.host4.app[1].io.destAddress = "host0"
*.host4.app[1].source.packetNameFormat = "%M-%m-%c"
*.host4.app[1].source.displayStringTextFormat = "sent %p pk (%l)"
*.host4.app[1].source.packetLength = 23B
*.host4.app[1].source.productionInterval = 1ms
*.host4.app[1].display-name = "type1_1"
*.host4.app[1].io.destPort = 1000
*.host4.app[2].typename = "UdpSinkApp"
*.host4.app[2].io.localPort = 1000
*.host4.app[3].typename = "UdpSinkApp"
*.host4.app[3].io.localPort = 1001
*.host4.app[4].typename = "UdpSinkApp"
*.host4.app[4].io.localPort = 1002
*.streamRedundancyConfigurator.configuration = [
	{
		name: "S1-0",
		packetFilter: "*-type1_0-*",
		source: "host4",
		destination: "host1",
		trees: [[["host4", "switch4", "switch1", "host1"]]]
	},
	{
		name: "S1-1",
		packetFilter: "*-type1_1-*",
		source: "host4",
		destination: "host0",
		trees: [[["host4", "switch4", "switch0", "host0"]]]
	},
	{
		name: "S2-0",
		packetFilter: "*-type2_0-*",
		source: "host0",
		destination: "host3",
		trees: [[["host0", "switch0", "switch3", "host3"]]]
	},
	{
		name: "S2-1",
		packetFilter: "*-type2_1-*",
		source: "host0",
		destination: "host4",
		trees: [[["host0", "switch0", "switch3", "switch1", "switch4", "host4"]]]
	},
	{
		name: "S2-2",
		packetFilter: "*-type2_2-*",
		source: "host1",
		destination: "host0",
		trees: [[["host1", "switch1", "switch4", "switch2", "switch0", "host0"]]]
	},
	{
		name: "S2-3",
		packetFilter: "*-type2_3-*",
		source: "host3",
		destination: "host2",
		trees: [[["host3", "switch3", "switch1", "switch4", "switch2", "host2"]]]
	},
	{
		name: "S2-4",
		packetFilter: "*-type2_4-*",
		source: "host3",
		destination: "host4",
		trees: [[["host3", "switch3", "switch1", "switch4", "host4"]]]
	},
	{
		name: "S2-5",
		packetFilter: "*-type2_5-*",
		source: "host0",
		destination: "host4",
		trees: [[["host0", "switch0", "switch3", "switch1", "switch4", "host4"]]]
	},
	{
		name: "S2-6",
		packetFilter: "*-type2_6-*",
		source: "host1",
		destination: "host2",
		trees: [[["host1", "switch1", "switch4", "switch2", "host2"]]]
	},
	{
		name: "S2-7",
		packetFilter: "*-type2_7-*",
		source: "host1",
		destination: "host2",
		trees: [[["host1", "switch1", "switch4", "switch2", "host2"]]]
	}]
	

