[General]
network = TSN_multipath
sim-time-limit = 10ms
*.macForwardingTableConfigurator.typename = ""
*.*.hasStreamRedundancy = true
*.*.bridging.streamRelay.typename = "StreamRelayLayer"
*.*.bridging.streamCoder.typename = "StreamCoderLayer"
*.streamRedundancyConfigurator.typename = "StreamRedundancyConfigurator"
*.host0.eth[0].bitrate = 1000Mbps
*.switch0.eth[0].bitrate = 1000Mbps
*.switch0.eth[1].bitrate = 1700Mbps
*.switch0.eth[2].bitrate = 2400Mbps
*.switch0.eth[3].bitrate = 2400Mbps
*.switch0.eth[4].bitrate = 2400Mbps
*.host1.eth[0].bitrate = 1000Mbps
*.switch1.eth[0].bitrate = 1000Mbps
*.switch1.eth[1].bitrate = 1700Mbps
*.switch1.eth[2].bitrate = 1800Mbps
*.switch1.eth[3].bitrate = 1300Mbps
*.switch1.eth[4].bitrate = 1200Mbps
*.host2.eth[0].bitrate = 1000Mbps
*.switch2.eth[0].bitrate = 1000Mbps
*.switch2.eth[1].bitrate = 2400Mbps
*.switch2.eth[2].bitrate = 2300Mbps
*.switch2.eth[3].bitrate = 2400Mbps
*.host3.eth[0].bitrate = 1000Mbps
*.switch3.eth[0].bitrate = 1000Mbps
*.switch3.eth[1].bitrate = 2300Mbps
*.switch3.eth[2].bitrate = 2400Mbps
*.switch3.eth[3].bitrate = 1300Mbps
*.switch3.eth[4].bitrate = 1300Mbps
*.host4.eth[0].bitrate = 1000Mbps
*.switch4.eth[0].bitrate = 1000Mbps
*.switch4.eth[1].bitrate = 1800Mbps
*.switch4.eth[2].bitrate = 2400Mbps
*.switch4.eth[3].bitrate = 1300Mbps
*.switch4.eth[4].bitrate = 2400Mbps
*.switch4.eth[5].bitrate = 1200Mbps
*.host0.numApps = 0
*.host1.numApps = 10
*.host1.app[0].typename = "UdpSourceApp"
*.host1.app[0].io.destAddress = "host3"
*.host1.app[0].source.packetNameFormat = "%M-%m-%c"
*.host1.app[0].source.displayStringTextFormat = "sent %p pk (%l)"
*.host1.app[0].source.packetLength = 13B
*.host1.app[0].source.productionInterval = 1ms
*.host1.app[0].display-name = "type1_1"
*.host1.app[0].io.destPort = 1000
*.host1.app[1].typename = "UdpBasicApp"
*.host1.app[1].destAddresses = "host2"
*.host1.app[1].source.packetNameFormat = "%M-%m-%c"
*.host1.app[1].source.displayStringTextFormat = "sent %p pk (%l)"
*.host1.app[1].messageLength = 13B
*.host1.app[1].sendInterval = 1ms
*.host1.app[1].startTime = 100us
*.host1.app[1].stopTime = 1400us
*.host1.app[1].display-name = "type2_0"
*.host1.app[1].destPort = 1000
*.host1.app[2].typename = "UdpBasicApp"
*.host1.app[2].destAddresses = "host2"
*.host1.app[2].source.packetNameFormat = "%M-%m-%c"
*.host1.app[2].source.displayStringTextFormat = "sent %p pk (%l)"
*.host1.app[2].messageLength = 13B
*.host1.app[2].sendInterval = 1ms
*.host1.app[2].startTime = 1500us
*.host1.app[2].stopTime = 2400us
*.host1.app[2].display-name = "type2_0"
*.host1.app[2].destPort = 1000
*.host1.app[3].typename = "UdpBasicApp"
*.host1.app[3].destAddresses = "host2"
*.host1.app[3].source.packetNameFormat = "%M-%m-%c"
*.host1.app[3].source.displayStringTextFormat = "sent %p pk (%l)"
*.host1.app[3].messageLength = 13B
*.host1.app[3].sendInterval = 1ms
*.host1.app[3].startTime = 2500us
*.host1.app[3].stopTime = 3700us
*.host1.app[3].display-name = "type2_0"
*.host1.app[3].destPort = 1000
*.host1.app[4].typename = "UdpBasicApp"
*.host1.app[4].destAddresses = "host2"
*.host1.app[4].source.packetNameFormat = "%M-%m-%c"
*.host1.app[4].source.displayStringTextFormat = "sent %p pk (%l)"
*.host1.app[4].messageLength = 13B
*.host1.app[4].sendInterval = 1ms
*.host1.app[4].startTime = 3900us
*.host1.app[4].stopTime = 4200us
*.host1.app[4].display-name = "type2_0"
*.host1.app[4].destPort = 1000
*.host1.app[5].typename = "UdpBasicApp"
*.host1.app[5].destAddresses = "host2"
*.host1.app[5].source.packetNameFormat = "%M-%m-%c"
*.host1.app[5].source.displayStringTextFormat = "sent %p pk (%l)"
*.host1.app[5].messageLength = 13B
*.host1.app[5].sendInterval = 1ms
*.host1.app[5].startTime = 5900us
*.host1.app[5].stopTime = 6800us
*.host1.app[5].display-name = "type2_0"
*.host1.app[5].destPort = 1000
*.host1.app[6].typename = "UdpBasicApp"
*.host1.app[6].destAddresses = "host2"
*.host1.app[6].source.packetNameFormat = "%M-%m-%c"
*.host1.app[6].source.displayStringTextFormat = "sent %p pk (%l)"
*.host1.app[6].messageLength = 13B
*.host1.app[6].sendInterval = 1ms
*.host1.app[6].startTime = 7100us
*.host1.app[6].stopTime = 8400us
*.host1.app[6].display-name = "type2_0"
*.host1.app[6].destPort = 1000
*.host1.app[7].typename = "UdpBasicApp"
*.host1.app[7].destAddresses = "host2"
*.host1.app[7].source.packetNameFormat = "%M-%m-%c"
*.host1.app[7].source.displayStringTextFormat = "sent %p pk (%l)"
*.host1.app[7].messageLength = 13B
*.host1.app[7].sendInterval = 1ms
*.host1.app[7].startTime = 8700us
*.host1.app[7].stopTime = 8900us
*.host1.app[7].display-name = "type2_0"
*.host1.app[7].destPort = 1000
*.host1.app[8].typename = "UdpBasicApp"
*.host1.app[8].destAddresses = "host2"
*.host1.app[8].source.packetNameFormat = "%M-%m-%c"
*.host1.app[8].source.displayStringTextFormat = "sent %p pk (%l)"
*.host1.app[8].messageLength = 13B
*.host1.app[8].sendInterval = 1ms
*.host1.app[8].startTime = 9000us
*.host1.app[8].stopTime = 10000us
*.host1.app[8].display-name = "type2_0"
*.host1.app[8].destPort = 1000
*.host1.app[9].typename = "UdpSinkApp"
*.host1.app[9].io.localPort = 1000
*.host2.numApps = 2
*.host2.app[0].typename = "UdpSourceApp"
*.host2.app[0].io.destAddress = "host4"
*.host2.app[0].source.packetNameFormat = "%M-%m-%c"
*.host2.app[0].source.displayStringTextFormat = "sent %p pk (%l)"
*.host2.app[0].source.packetLength = 16B
*.host2.app[0].source.productionInterval = 1ms
*.host2.app[0].display-name = "type1_0"
*.host2.app[0].io.destPort = 1000
*.host2.app[1].typename = "UdpSinkApp"
*.host2.app[1].io.localPort = 1000
*.host3.numApps = 5
*.host3.app[0].typename = "UdpSinkApp"
*.host3.app[0].io.localPort = 1000
*.host3.app[1].typename = "UdpBasicApp"
*.host3.app[1].destAddresses = "host1"
*.host3.app[1].source.packetNameFormat = "%M-%m-%c"
*.host3.app[1].source.displayStringTextFormat = "sent %p pk (%l)"
*.host3.app[1].messageLength = 20B
*.host3.app[1].sendInterval = 1ms
*.host3.app[1].startTime = 100us
*.host3.app[1].stopTime = 2800us
*.host3.app[1].display-name = "type2_1"
*.host3.app[1].destPort = 1000
*.host3.app[2].typename = "UdpBasicApp"
*.host3.app[2].destAddresses = "host1"
*.host3.app[2].source.packetNameFormat = "%M-%m-%c"
*.host3.app[2].source.displayStringTextFormat = "sent %p pk (%l)"
*.host3.app[2].messageLength = 20B
*.host3.app[2].sendInterval = 1ms
*.host3.app[2].startTime = 3400us
*.host3.app[2].stopTime = 5000us
*.host3.app[2].display-name = "type2_1"
*.host3.app[2].destPort = 1000
*.host3.app[3].typename = "UdpBasicApp"
*.host3.app[3].destAddresses = "host1"
*.host3.app[3].source.packetNameFormat = "%M-%m-%c"
*.host3.app[3].source.displayStringTextFormat = "sent %p pk (%l)"
*.host3.app[3].messageLength = 20B
*.host3.app[3].sendInterval = 1ms
*.host3.app[3].startTime = 6400us
*.host3.app[3].stopTime = 7300us
*.host3.app[3].display-name = "type2_1"
*.host3.app[3].destPort = 1000
*.host3.app[4].typename = "UdpBasicApp"
*.host3.app[4].destAddresses = "host1"
*.host3.app[4].source.packetNameFormat = "%M-%m-%c"
*.host3.app[4].source.displayStringTextFormat = "sent %p pk (%l)"
*.host3.app[4].messageLength = 20B
*.host3.app[4].sendInterval = 1ms
*.host3.app[4].startTime = 7500us
*.host3.app[4].stopTime = 10000us
*.host3.app[4].display-name = "type2_1"
*.host3.app[4].destPort = 1000
*.host4.numApps = 1
*.host4.app[0].typename = "UdpSinkApp"
*.host4.app[0].io.localPort = 1000
*.streamRedundancyConfigurator.configuration = [
	{
		name: "S1-0",
		packetFilter: "*-type1_0-*",
		source: "host2",
		destination: "host4",
		trees: [[["host2", "switch2", "switch4", "host4"]]]
	},
	{
		name: "S1-1",
		packetFilter: "*-type1_1-*",
		source: "host1",
		destination: "host3",
		trees: [[["host1", "switch1", "switch4", "switch0", "switch2", "switch3", "host3"]]]
	},
	{
		name: "S2-0",
		packetFilter: "*-type2_0-*",
		source: "host1",
		destination: "host2",
		trees: [[["host1", "switch1", "switch4", "switch0", "switch2", "host2"]]]
	},
	{
		name: "S2-1",
		packetFilter: "*-type2_1-*",
		source: "host3",
		destination: "host1",
		trees: [[["host3", "switch3", "switch1", "host1"]]]
	}]
	

