[General]
network = TSN_multipath
sim-time-limit = 100ms
*.macForwardingTableConfigurator.typename = ""
*.*.hasStreamRedundancy = true
*.*.bridging.streamRelay.typename = "StreamRelayLayer"
*.*.bridging.streamCoder.typename = "StreamCoderLayer"
*.streamRedundancyConfigurator.typename = "StreamRedundancyConfigurator"
*.host0.eth[0].bitrate = 1000Mbps
*.switch0.eth[0].bitrate = 1000Mbps
*.switch0.eth[1].bitrate = 1700Mbps
*.switch0.eth[2].bitrate = 1200Mbps
*.switch0.eth[3].bitrate = 2000Mbps
*.host1.eth[0].bitrate = 1000Mbps
*.switch1.eth[0].bitrate = 1000Mbps
*.switch1.eth[1].bitrate = 1200Mbps
*.switch1.eth[2].bitrate = 1400Mbps
*.switch1.eth[3].bitrate = 1700Mbps
*.switch1.eth[4].bitrate = 2000Mbps
*.host2.eth[0].bitrate = 1000Mbps
*.switch2.eth[0].bitrate = 1000Mbps
*.switch2.eth[1].bitrate = 1400Mbps
*.switch2.eth[2].bitrate = 2000Mbps
*.switch2.eth[3].bitrate = 2100Mbps
*.switch2.eth[4].bitrate = 2100Mbps
*.switch2.eth[5].bitrate = 1300Mbps
*.host3.eth[0].bitrate = 1000Mbps
*.switch3.eth[0].bitrate = 1000Mbps
*.switch3.eth[1].bitrate = 2100Mbps
*.switch3.eth[2].bitrate = 2000Mbps
*.switch3.eth[3].bitrate = 1300Mbps
*.switch3.eth[4].bitrate = 1400Mbps
*.switch3.eth[5].bitrate = 2100Mbps
*.host4.eth[0].bitrate = 1000Mbps
*.switch4.eth[0].bitrate = 1000Mbps
*.switch4.eth[1].bitrate = 1700Mbps
*.switch4.eth[2].bitrate = 1700Mbps
*.switch4.eth[3].bitrate = 2100Mbps
*.switch4.eth[4].bitrate = 1400Mbps
*.switch4.eth[5].bitrate = 2100Mbps
*.host0.numApps = 2
*.host0.app[0].typename = "UdpSinkApp"
*.host0.app[0].io.localPort = 1000
*.host0.app[1].typename = "UdpSinkApp"
*.host0.app[1].io.localPort = 1001
*.host1.numApps = 1
*.host1.app[0].typename = "UdpSinkApp"
*.host1.app[0].io.localPort = 1000
*.host2.numApps = 11
*.host2.app[0].typename = "UdpSinkApp"
*.host2.app[0].io.localPort = 1000
*.host2.app[1].typename = "UdpBasicApp"
*.host2.app[1].destAddresses = "host0"
*.host2.app[1].source.packetNameFormat = "%M-%m-%c"
*.host2.app[1].source.displayStringTextFormat = "sent %p pk (%l)"
*.host2.app[1].messageLength = 15B
*.host2.app[1].sendInterval = 1ms
*.host2.app[1].startTime = 1ms
*.host2.app[1].stopTime = 6ms
*.host2.app[1].display-name = "type2_0"
*.host2.app[1].destPort = 1000
*.host2.app[2].typename = "UdpBasicApp"
*.host2.app[2].destAddresses = "host0"
*.host2.app[2].source.packetNameFormat = "%M-%m-%c"
*.host2.app[2].source.displayStringTextFormat = "sent %p pk (%l)"
*.host2.app[2].messageLength = 15B
*.host2.app[2].sendInterval = 1ms
*.host2.app[2].startTime = 11ms
*.host2.app[2].stopTime = 13ms
*.host2.app[2].display-name = "type2_0"
*.host2.app[2].destPort = 1000
*.host2.app[3].typename = "UdpBasicApp"
*.host2.app[3].destAddresses = "host0"
*.host2.app[3].source.packetNameFormat = "%M-%m-%c"
*.host2.app[3].source.displayStringTextFormat = "sent %p pk (%l)"
*.host2.app[3].messageLength = 15B
*.host2.app[3].sendInterval = 1ms
*.host2.app[3].startTime = 25ms
*.host2.app[3].stopTime = 90ms
*.host2.app[3].display-name = "type2_0"
*.host2.app[3].destPort = 1000
*.host2.app[4].typename = "UdpBasicApp"
*.host2.app[4].destAddresses = "host0"
*.host2.app[4].source.packetNameFormat = "%M-%m-%c"
*.host2.app[4].source.displayStringTextFormat = "sent %p pk (%l)"
*.host2.app[4].messageLength = 15B
*.host2.app[4].sendInterval = 1ms
*.host2.app[4].startTime = 94ms
*.host2.app[4].stopTime = 100ms
*.host2.app[4].display-name = "type2_0"
*.host2.app[4].destPort = 1000
*.host2.app[5].typename = "UdpBasicApp"
*.host2.app[5].destAddresses = "host0"
*.host2.app[5].source.packetNameFormat = "%M-%m-%c"
*.host2.app[5].source.displayStringTextFormat = "sent %p pk (%l)"
*.host2.app[5].messageLength = 21B
*.host2.app[5].sendInterval = 1ms
*.host2.app[5].startTime = 3ms
*.host2.app[5].stopTime = 9ms
*.host2.app[5].display-name = "type2_1"
*.host2.app[5].destPort = 1001
*.host2.app[6].typename = "UdpBasicApp"
*.host2.app[6].destAddresses = "host0"
*.host2.app[6].source.packetNameFormat = "%M-%m-%c"
*.host2.app[6].source.displayStringTextFormat = "sent %p pk (%l)"
*.host2.app[6].messageLength = 21B
*.host2.app[6].sendInterval = 1ms
*.host2.app[6].startTime = 29ms
*.host2.app[6].stopTime = 32ms
*.host2.app[6].display-name = "type2_1"
*.host2.app[6].destPort = 1001
*.host2.app[7].typename = "UdpBasicApp"
*.host2.app[7].destAddresses = "host0"
*.host2.app[7].source.packetNameFormat = "%M-%m-%c"
*.host2.app[7].source.displayStringTextFormat = "sent %p pk (%l)"
*.host2.app[7].messageLength = 21B
*.host2.app[7].sendInterval = 1ms
*.host2.app[7].startTime = 38ms
*.host2.app[7].stopTime = 43ms
*.host2.app[7].display-name = "type2_1"
*.host2.app[7].destPort = 1001
*.host2.app[8].typename = "UdpBasicApp"
*.host2.app[8].destAddresses = "host0"
*.host2.app[8].source.packetNameFormat = "%M-%m-%c"
*.host2.app[8].source.displayStringTextFormat = "sent %p pk (%l)"
*.host2.app[8].messageLength = 21B
*.host2.app[8].sendInterval = 1ms
*.host2.app[8].startTime = 46ms
*.host2.app[8].stopTime = 47ms
*.host2.app[8].display-name = "type2_1"
*.host2.app[8].destPort = 1001
*.host2.app[9].typename = "UdpBasicApp"
*.host2.app[9].destAddresses = "host0"
*.host2.app[9].source.packetNameFormat = "%M-%m-%c"
*.host2.app[9].source.displayStringTextFormat = "sent %p pk (%l)"
*.host2.app[9].messageLength = 21B
*.host2.app[9].sendInterval = 1ms
*.host2.app[9].startTime = 56ms
*.host2.app[9].stopTime = 79ms
*.host2.app[9].display-name = "type2_1"
*.host2.app[9].destPort = 1001
*.host2.app[10].typename = "UdpBasicApp"
*.host2.app[10].destAddresses = "host0"
*.host2.app[10].source.packetNameFormat = "%M-%m-%c"
*.host2.app[10].source.displayStringTextFormat = "sent %p pk (%l)"
*.host2.app[10].messageLength = 21B
*.host2.app[10].sendInterval = 1ms
*.host2.app[10].startTime = 89ms
*.host2.app[10].stopTime = 97ms
*.host2.app[10].display-name = "type2_1"
*.host2.app[10].destPort = 1001
*.host3.numApps = 0
*.host4.numApps = 2
*.host4.app[0].typename = "UdpSourceApp"
*.host4.app[0].io.destAddress = "host1"
*.host4.app[0].source.packetNameFormat = "%M-%m-%c"
*.host4.app[0].source.displayStringTextFormat = "sent %p pk (%l)"
*.host4.app[0].source.packetLength = 13B
*.host4.app[0].source.productionInterval = 1ms
*.host4.app[0].display-name = "type1_0"
*.host4.app[0].io.destPort = 1000
*.host4.app[1].typename = "UdpSourceApp"
*.host4.app[1].io.destAddress = "host2"
*.host4.app[1].source.packetNameFormat = "%M-%m-%c"
*.host4.app[1].source.displayStringTextFormat = "sent %p pk (%l)"
*.host4.app[1].source.packetLength = 20B
*.host4.app[1].source.productionInterval = 1ms
*.host4.app[1].display-name = "type1_1"
*.host4.app[1].io.destPort = 1000
*.streamRedundancyConfigurator.configuration = [
	{
		name: "S1-0",
		packetFilter: "*-type1_0-*",
		source: "host4",
		destination: "host1",
		trees: [[["host4", "switch4", "switch3", "switch2", "switch1", "host1"]]]
	},
	{
		name: "S1-1",
		packetFilter: "*-type1_1-*",
		source: "host4",
		destination: "host2",
		trees: [[["host4", "switch4", "switch3", "switch2", "host2"]]]
	},
	{
		name: "S2-0",
		packetFilter: "*-type2_0-*",
		source: "host2",
		destination: "host0",
		trees: [[["host2", "switch2", "switch1", "switch0", "host0"]]]
	},
	{
		name: "S2-1",
		packetFilter: "*-type2_1-*",
		source: "host2",
		destination: "host0",
		trees: [[["host2", "switch2", "switch1", "switch0", "host0"]]]
	}]
	

