[General]
network = TSN_multipath
sim-time-limit = 100ms
*.macForwardingTableConfigurator.typename = ""
*.*.hasStreamRedundancy = true
*.*.bridging.streamRelay.typename = "StreamRelayLayer"
*.*.bridging.streamCoder.typename = "StreamCoderLayer"
*.streamRedundancyConfigurator.typename = "StreamRedundancyConfigurator"
*.host0.eth[0].bitrate = 1000Mbps
*.switch0.eth[0].bitrate = 1000Mbps
*.switch0.eth[1].bitrate = 2300Mbps
*.switch0.eth[2].bitrate = 2100Mbps
*.switch0.eth[3].bitrate = 2200Mbps
*.switch0.eth[4].bitrate = 1200Mbps
*.switch0.eth[5].bitrate = 2400Mbps
*.switch0.eth[6].bitrate = 1600Mbps
*.switch0.eth[7].bitrate = 2400Mbps
*.switch0.eth[8].bitrate = 1600Mbps
*.switch0.eth[9].bitrate = 1900Mbps
*.switch0.eth[10].bitrate = 2400Mbps
*.switch0.eth[11].bitrate = 1400Mbps
*.switch0.eth[12].bitrate = 1300Mbps
*.switch0.eth[13].bitrate = 1900Mbps
*.switch0.eth[14].bitrate = 2100Mbps
*.host1.eth[0].bitrate = 1000Mbps
*.switch1.eth[0].bitrate = 1000Mbps
*.switch1.eth[1].bitrate = 1600Mbps
*.switch1.eth[2].bitrate = 2300Mbps
*.switch1.eth[3].bitrate = 1300Mbps
*.switch1.eth[4].bitrate = 1700Mbps
*.switch1.eth[5].bitrate = 1300Mbps
*.switch1.eth[6].bitrate = 2300Mbps
*.switch1.eth[7].bitrate = 2200Mbps
*.switch1.eth[8].bitrate = 1600Mbps
*.switch1.eth[9].bitrate = 1200Mbps
*.switch1.eth[10].bitrate = 1600Mbps
*.host2.eth[0].bitrate = 1000Mbps
*.switch2.eth[0].bitrate = 1000Mbps
*.switch2.eth[1].bitrate = 2300Mbps
*.switch2.eth[2].bitrate = 1300Mbps
*.switch2.eth[3].bitrate = 2000Mbps
*.switch2.eth[4].bitrate = 1500Mbps
*.switch2.eth[5].bitrate = 2400Mbps
*.switch2.eth[6].bitrate = 2000Mbps
*.switch2.eth[7].bitrate = 1200Mbps
*.switch2.eth[8].bitrate = 2100Mbps
*.switch2.eth[9].bitrate = 1700Mbps
*.switch2.eth[10].bitrate = 1600Mbps
*.switch2.eth[11].bitrate = 1200Mbps
*.switch2.eth[12].bitrate = 1900Mbps
*.switch2.eth[13].bitrate = 1400Mbps
*.switch2.eth[14].bitrate = 1800Mbps
*.switch2.eth[15].bitrate = 2100Mbps
*.switch2.eth[16].bitrate = 2300Mbps
*.host3.eth[0].bitrate = 1000Mbps
*.switch3.eth[0].bitrate = 1000Mbps
*.switch3.eth[1].bitrate = 2400Mbps
*.switch3.eth[2].bitrate = 1700Mbps
*.switch3.eth[3].bitrate = 1200Mbps
*.switch3.eth[4].bitrate = 2200Mbps
*.switch3.eth[5].bitrate = 2300Mbps
*.switch3.eth[6].bitrate = 1200Mbps
*.switch3.eth[7].bitrate = 2200Mbps
*.switch3.eth[8].bitrate = 2200Mbps
*.switch3.eth[9].bitrate = 2400Mbps
*.switch3.eth[10].bitrate = 2200Mbps
*.switch3.eth[11].bitrate = 2000Mbps
*.switch3.eth[12].bitrate = 2200Mbps
*.switch3.eth[13].bitrate = 2400Mbps
*.switch3.eth[14].bitrate = 1900Mbps
*.switch3.eth[15].bitrate = 1300Mbps
*.host4.eth[0].bitrate = 1000Mbps
*.switch4.eth[0].bitrate = 1000Mbps
*.switch4.eth[1].bitrate = 1600Mbps
*.switch4.eth[2].bitrate = 2200Mbps
*.switch4.eth[3].bitrate = 2100Mbps
*.switch4.eth[4].bitrate = 1700Mbps
*.switch4.eth[5].bitrate = 2300Mbps
*.switch4.eth[6].bitrate = 1300Mbps
*.switch4.eth[7].bitrate = 2100Mbps
*.switch4.eth[8].bitrate = 2300Mbps
*.switch4.eth[9].bitrate = 2400Mbps
*.switch4.eth[10].bitrate = 1200Mbps
*.switch4.eth[11].bitrate = 1200Mbps
*.host5.eth[0].bitrate = 1000Mbps
*.switch5.eth[0].bitrate = 1000Mbps
*.switch5.eth[1].bitrate = 2300Mbps
*.switch5.eth[2].bitrate = 1700Mbps
*.switch5.eth[3].bitrate = 1700Mbps
*.switch5.eth[4].bitrate = 2300Mbps
*.switch5.eth[5].bitrate = 1400Mbps
*.switch5.eth[6].bitrate = 1500Mbps
*.switch5.eth[7].bitrate = 2100Mbps
*.switch5.eth[8].bitrate = 1400Mbps
*.switch5.eth[9].bitrate = 1700Mbps
*.switch5.eth[10].bitrate = 1500Mbps
*.switch5.eth[11].bitrate = 2000Mbps
*.switch5.eth[12].bitrate = 1200Mbps
*.switch5.eth[13].bitrate = 2400Mbps
*.switch5.eth[14].bitrate = 1900Mbps
*.switch5.eth[15].bitrate = 1300Mbps
*.switch5.eth[16].bitrate = 1600Mbps
*.host6.eth[0].bitrate = 1000Mbps
*.switch6.eth[0].bitrate = 1000Mbps
*.switch6.eth[1].bitrate = 2000Mbps
*.switch6.eth[2].bitrate = 1200Mbps
*.switch6.eth[3].bitrate = 2300Mbps
*.switch6.eth[4].bitrate = 1300Mbps
*.switch6.eth[5].bitrate = 2000Mbps
*.switch6.eth[6].bitrate = 2400Mbps
*.switch6.eth[7].bitrate = 1500Mbps
*.switch6.eth[8].bitrate = 1500Mbps
*.switch6.eth[9].bitrate = 1900Mbps
*.switch6.eth[10].bitrate = 1300Mbps
*.switch6.eth[11].bitrate = 2400Mbps
*.switch6.eth[12].bitrate = 2200Mbps
*.switch6.eth[13].bitrate = 2000Mbps
*.switch6.eth[14].bitrate = 1700Mbps
*.switch6.eth[15].bitrate = 1800Mbps
*.switch6.eth[16].bitrate = 2200Mbps
*.switch6.eth[17].bitrate = 2400Mbps
*.host7.eth[0].bitrate = 1000Mbps
*.switch7.eth[0].bitrate = 1000Mbps
*.switch7.eth[1].bitrate = 2100Mbps
*.switch7.eth[2].bitrate = 1500Mbps
*.switch7.eth[3].bitrate = 2200Mbps
*.switch7.eth[4].bitrate = 1400Mbps
*.switch7.eth[5].bitrate = 1500Mbps
*.switch7.eth[6].bitrate = 1600Mbps
*.switch7.eth[7].bitrate = 2000Mbps
*.switch7.eth[8].bitrate = 1500Mbps
*.switch7.eth[9].bitrate = 1800Mbps
*.switch7.eth[10].bitrate = 2400Mbps
*.switch7.eth[11].bitrate = 2200Mbps
*.switch7.eth[12].bitrate = 1700Mbps
*.switch7.eth[13].bitrate = 1800Mbps
*.switch7.eth[14].bitrate = 2000Mbps
*.host8.eth[0].bitrate = 1000Mbps
*.switch8.eth[0].bitrate = 1000Mbps
*.switch8.eth[1].bitrate = 2200Mbps
*.switch8.eth[2].bitrate = 2400Mbps
*.switch8.eth[3].bitrate = 1500Mbps
*.switch8.eth[4].bitrate = 1900Mbps
*.switch8.eth[5].bitrate = 2300Mbps
*.switch8.eth[6].bitrate = 1600Mbps
*.switch8.eth[7].bitrate = 2200Mbps
*.switch8.eth[8].bitrate = 1200Mbps
*.switch8.eth[9].bitrate = 2000Mbps
*.switch8.eth[10].bitrate = 1700Mbps
*.switch8.eth[11].bitrate = 2400Mbps
*.switch8.eth[12].bitrate = 2400Mbps
*.switch8.eth[13].bitrate = 1700Mbps
*.switch8.eth[14].bitrate = 1600Mbps
*.switch8.eth[15].bitrate = 1400Mbps
*.switch8.eth[16].bitrate = 1800Mbps
*.switch8.eth[17].bitrate = 2400Mbps
*.switch8.eth[18].bitrate = 1900Mbps
*.switch8.eth[19].bitrate = 2000Mbps
*.switch8.eth[20].bitrate = 1400Mbps
*.host9.eth[0].bitrate = 1000Mbps
*.switch9.eth[0].bitrate = 1000Mbps
*.switch9.eth[1].bitrate = 2300Mbps
*.switch9.eth[2].bitrate = 2000Mbps
*.switch9.eth[3].bitrate = 2200Mbps
*.switch9.eth[4].bitrate = 1900Mbps
*.switch9.eth[5].bitrate = 1500Mbps
*.switch9.eth[6].bitrate = 2400Mbps
*.switch9.eth[7].bitrate = 2400Mbps
*.switch9.eth[8].bitrate = 2200Mbps
*.switch9.eth[9].bitrate = 1200Mbps
*.switch9.eth[10].bitrate = 1200Mbps
*.switch9.eth[11].bitrate = 1800Mbps
*.switch9.eth[12].bitrate = 2400Mbps
*.switch9.eth[13].bitrate = 1300Mbps
*.switch9.eth[14].bitrate = 1800Mbps
*.switch9.eth[15].bitrate = 1500Mbps
*.switch9.eth[16].bitrate = 1400Mbps
*.switch9.eth[17].bitrate = 1700Mbps
*.switch9.eth[18].bitrate = 1900Mbps
*.switch9.eth[19].bitrate = 1800Mbps
*.switch9.eth[20].bitrate = 1900Mbps
*.switch9.eth[21].bitrate = 2100Mbps
*.switch9.eth[22].bitrate = 1900Mbps
*.host10.eth[0].bitrate = 1000Mbps
*.switch10.eth[0].bitrate = 1000Mbps
*.switch10.eth[1].bitrate = 2400Mbps
*.switch10.eth[2].bitrate = 1300Mbps
*.switch10.eth[3].bitrate = 1300Mbps
*.switch10.eth[4].bitrate = 1700Mbps
*.switch10.eth[5].bitrate = 1300Mbps
*.switch10.eth[6].bitrate = 1400Mbps
*.switch10.eth[7].bitrate = 1600Mbps
*.switch10.eth[8].bitrate = 1900Mbps
*.switch10.eth[9].bitrate = 2400Mbps
*.switch10.eth[10].bitrate = 2200Mbps
*.switch10.eth[11].bitrate = 1900Mbps
*.switch10.eth[12].bitrate = 1700Mbps
*.switch10.eth[13].bitrate = 1800Mbps
*.switch10.eth[14].bitrate = 1900Mbps
*.switch10.eth[15].bitrate = 2400Mbps
*.host11.eth[0].bitrate = 1000Mbps
*.switch11.eth[0].bitrate = 1000Mbps
*.switch11.eth[1].bitrate = 2200Mbps
*.switch11.eth[2].bitrate = 1600Mbps
*.switch11.eth[3].bitrate = 1800Mbps
*.switch11.eth[4].bitrate = 1700Mbps
*.switch11.eth[5].bitrate = 1400Mbps
*.switch11.eth[6].bitrate = 1200Mbps
*.switch11.eth[7].bitrate = 2400Mbps
*.switch11.eth[8].bitrate = 1700Mbps
*.switch11.eth[9].bitrate = 1800Mbps
*.switch11.eth[10].bitrate = 1600Mbps
*.switch11.eth[11].bitrate = 1200Mbps
*.switch11.eth[12].bitrate = 1300Mbps
*.switch11.eth[13].bitrate = 1400Mbps
*.switch11.eth[14].bitrate = 1200Mbps
*.host12.eth[0].bitrate = 1000Mbps
*.switch12.eth[0].bitrate = 1000Mbps
*.switch12.eth[1].bitrate = 1200Mbps
*.switch12.eth[2].bitrate = 2100Mbps
*.switch12.eth[3].bitrate = 1800Mbps
*.switch12.eth[4].bitrate = 1400Mbps
*.switch12.eth[5].bitrate = 1500Mbps
*.switch12.eth[6].bitrate = 1800Mbps
*.switch12.eth[7].bitrate = 1600Mbps
*.switch12.eth[8].bitrate = 1300Mbps
*.switch12.eth[9].bitrate = 1200Mbps
*.switch12.eth[10].bitrate = 1800Mbps
*.switch12.eth[11].bitrate = 1900Mbps
*.switch12.eth[12].bitrate = 1900Mbps
*.switch12.eth[13].bitrate = 2200Mbps
*.switch12.eth[14].bitrate = 1800Mbps
*.switch12.eth[15].bitrate = 1900Mbps
*.switch12.eth[16].bitrate = 1900Mbps
*.switch12.eth[17].bitrate = 1300Mbps
*.switch12.eth[18].bitrate = 1200Mbps
*.switch12.eth[19].bitrate = 2000Mbps
*.switch12.eth[20].bitrate = 2100Mbps
*.host13.eth[0].bitrate = 1000Mbps
*.switch13.eth[0].bitrate = 1000Mbps
*.switch13.eth[1].bitrate = 2400Mbps
*.switch13.eth[2].bitrate = 1400Mbps
*.switch13.eth[3].bitrate = 2400Mbps
*.switch13.eth[4].bitrate = 1400Mbps
*.switch13.eth[5].bitrate = 1900Mbps
*.switch13.eth[6].bitrate = 1900Mbps
*.switch13.eth[7].bitrate = 2100Mbps
*.switch13.eth[8].bitrate = 1300Mbps
*.switch13.eth[9].bitrate = 2400Mbps
*.switch13.eth[10].bitrate = 2000Mbps
*.switch13.eth[11].bitrate = 2000Mbps
*.switch13.eth[12].bitrate = 2100Mbps
*.switch13.eth[13].bitrate = 1400Mbps
*.switch13.eth[14].bitrate = 2000Mbps
*.host14.eth[0].bitrate = 1000Mbps
*.switch14.eth[0].bitrate = 1000Mbps
*.switch14.eth[1].bitrate = 1600Mbps
*.switch14.eth[2].bitrate = 2100Mbps
*.switch14.eth[3].bitrate = 1700Mbps
*.switch14.eth[4].bitrate = 2200Mbps
*.switch14.eth[5].bitrate = 1800Mbps
*.switch14.eth[6].bitrate = 1700Mbps
*.switch14.eth[7].bitrate = 1200Mbps
*.switch14.eth[8].bitrate = 1200Mbps
*.switch14.eth[9].bitrate = 2100Mbps
*.switch14.eth[10].bitrate = 1600Mbps
*.switch14.eth[11].bitrate = 2300Mbps
*.switch14.eth[12].bitrate = 1300Mbps
*.switch14.eth[13].bitrate = 1600Mbps
*.switch14.eth[14].bitrate = 1400Mbps
*.switch14.eth[15].bitrate = 1900Mbps
*.switch14.eth[16].bitrate = 2400Mbps
*.switch14.eth[17].bitrate = 1200Mbps
*.switch14.eth[18].bitrate = 2100Mbps
*.host0.numApps = 1
*.host0.app[0].typename = "UdpSinkApp"
*.host0.app[0].io.localPort = 1000
*.host1.numApps = 3
*.host1.app[0].typename = "UdpSourceApp"
*.host1.app[0].io.destAddress = "host2"
*.host1.app[0].source.packetNameFormat = "%M-%m-%c"
*.host1.app[0].source.displayStringTextFormat = "sent %p pk (%l)"
*.host1.app[0].source.packetLength = 15B
*.host1.app[0].source.productionInterval = 1ms
*.host1.app[0].display-name = "type1_4"
*.host1.app[0].io.destPort = 1000
*.host1.app[1].typename = "UdpSinkApp"
*.host1.app[1].io.localPort = 1000
*.host1.app[2].typename = "UdpSinkApp"
*.host1.app[2].io.localPort = 1001
*.host2.numApps = 3
*.host2.app[0].typename = "UdpSourceApp"
*.host2.app[0].io.destAddress = "host12"
*.host2.app[0].source.packetNameFormat = "%M-%m-%c"
*.host2.app[0].source.displayStringTextFormat = "sent %p pk (%l)"
*.host2.app[0].source.packetLength = 23B
*.host2.app[0].source.productionInterval = 1ms
*.host2.app[0].display-name = "type1_1"
*.host2.app[0].io.destPort = 1000
*.host2.app[1].typename = "UdpSinkApp"
*.host2.app[1].io.localPort = 1000
*.host2.app[2].typename = "UdpSinkApp"
*.host2.app[2].io.localPort = 1001
*.host3.numApps = 0
*.host4.numApps = 2
*.host4.app[0].typename = "UdpSinkApp"
*.host4.app[0].io.localPort = 1000
*.host4.app[1].typename = "UdpSinkApp"
*.host4.app[1].io.localPort = 1001
*.host5.numApps = 10
*.host5.app[0].typename = "UdpSinkApp"
*.host5.app[0].io.localPort = 1000
*.host5.app[1].typename = "UdpBasicApp"
*.host5.app[1].destAddresses = "host2"
*.host5.app[1].source.packetNameFormat = "%M-%m-%c"
*.host5.app[1].source.displayStringTextFormat = "sent %p pk (%l)"
*.host5.app[1].messageLength = 17B
*.host5.app[1].sendInterval = 1ms
*.host5.app[1].startTime = 1ms
*.host5.app[1].stopTime = 2ms
*.host5.app[1].display-name = "type2_5"
*.host5.app[1].destPort = 1001
*.host5.app[2].typename = "UdpBasicApp"
*.host5.app[2].destAddresses = "host2"
*.host5.app[2].source.packetNameFormat = "%M-%m-%c"
*.host5.app[2].source.displayStringTextFormat = "sent %p pk (%l)"
*.host5.app[2].messageLength = 17B
*.host5.app[2].sendInterval = 1ms
*.host5.app[2].startTime = 9ms
*.host5.app[2].stopTime = 10ms
*.host5.app[2].display-name = "type2_5"
*.host5.app[2].destPort = 1001
*.host5.app[3].typename = "UdpBasicApp"
*.host5.app[3].destAddresses = "host2"
*.host5.app[3].source.packetNameFormat = "%M-%m-%c"
*.host5.app[3].source.displayStringTextFormat = "sent %p pk (%l)"
*.host5.app[3].messageLength = 17B
*.host5.app[3].sendInterval = 1ms
*.host5.app[3].startTime = 16ms
*.host5.app[3].stopTime = 18ms
*.host5.app[3].display-name = "type2_5"
*.host5.app[3].destPort = 1001
*.host5.app[4].typename = "UdpBasicApp"
*.host5.app[4].destAddresses = "host2"
*.host5.app[4].source.packetNameFormat = "%M-%m-%c"
*.host5.app[4].source.displayStringTextFormat = "sent %p pk (%l)"
*.host5.app[4].messageLength = 17B
*.host5.app[4].sendInterval = 1ms
*.host5.app[4].startTime = 22ms
*.host5.app[4].stopTime = 44ms
*.host5.app[4].display-name = "type2_5"
*.host5.app[4].destPort = 1001
*.host5.app[5].typename = "UdpBasicApp"
*.host5.app[5].destAddresses = "host2"
*.host5.app[5].source.packetNameFormat = "%M-%m-%c"
*.host5.app[5].source.displayStringTextFormat = "sent %p pk (%l)"
*.host5.app[5].messageLength = 17B
*.host5.app[5].sendInterval = 1ms
*.host5.app[5].startTime = 48ms
*.host5.app[5].stopTime = 55ms
*.host5.app[5].display-name = "type2_5"
*.host5.app[5].destPort = 1001
*.host5.app[6].typename = "UdpBasicApp"
*.host5.app[6].destAddresses = "host2"
*.host5.app[6].source.packetNameFormat = "%M-%m-%c"
*.host5.app[6].source.displayStringTextFormat = "sent %p pk (%l)"
*.host5.app[6].messageLength = 17B
*.host5.app[6].sendInterval = 1ms
*.host5.app[6].startTime = 76ms
*.host5.app[6].stopTime = 78ms
*.host5.app[6].display-name = "type2_5"
*.host5.app[6].destPort = 1001
*.host5.app[7].typename = "UdpBasicApp"
*.host5.app[7].destAddresses = "host2"
*.host5.app[7].source.packetNameFormat = "%M-%m-%c"
*.host5.app[7].source.displayStringTextFormat = "sent %p pk (%l)"
*.host5.app[7].messageLength = 17B
*.host5.app[7].sendInterval = 1ms
*.host5.app[7].startTime = 80ms
*.host5.app[7].stopTime = 81ms
*.host5.app[7].display-name = "type2_5"
*.host5.app[7].destPort = 1001
*.host5.app[8].typename = "UdpBasicApp"
*.host5.app[8].destAddresses = "host2"
*.host5.app[8].source.packetNameFormat = "%M-%m-%c"
*.host5.app[8].source.displayStringTextFormat = "sent %p pk (%l)"
*.host5.app[8].messageLength = 17B
*.host5.app[8].sendInterval = 1ms
*.host5.app[8].startTime = 88ms
*.host5.app[8].stopTime = 89ms
*.host5.app[8].display-name = "type2_5"
*.host5.app[8].destPort = 1001
*.host5.app[9].typename = "UdpBasicApp"
*.host5.app[9].destAddresses = "host2"
*.host5.app[9].source.packetNameFormat = "%M-%m-%c"
*.host5.app[9].source.displayStringTextFormat = "sent %p pk (%l)"
*.host5.app[9].messageLength = 17B
*.host5.app[9].sendInterval = 1ms
*.host5.app[9].startTime = 96ms
*.host5.app[9].stopTime = 100ms
*.host5.app[9].display-name = "type2_5"
*.host5.app[9].destPort = 1001
*.host6.numApps = 2
*.host6.app[0].typename = "UdpSinkApp"
*.host6.app[0].io.localPort = 1000
*.host6.app[1].typename = "UdpSinkApp"
*.host6.app[1].io.localPort = 1001
*.host7.numApps = 6
*.host7.app[0].typename = "UdpSourceApp"
*.host7.app[0].io.destAddress = "host6"
*.host7.app[0].source.packetNameFormat = "%M-%m-%c"
*.host7.app[0].source.displayStringTextFormat = "sent %p pk (%l)"
*.host7.app[0].source.packetLength = 23B
*.host7.app[0].source.productionInterval = 1ms
*.host7.app[0].display-name = "type1_2"
*.host7.app[0].io.destPort = 1000
*.host7.app[1].typename = "UdpBasicApp"
*.host7.app[1].destAddresses = "host13"
*.host7.app[1].source.packetNameFormat = "%M-%m-%c"
*.host7.app[1].source.displayStringTextFormat = "sent %p pk (%l)"
*.host7.app[1].messageLength = 19B
*.host7.app[1].sendInterval = 1ms
*.host7.app[1].startTime = 13ms
*.host7.app[1].stopTime = 16ms
*.host7.app[1].display-name = "type2_1"
*.host7.app[1].destPort = 1000
*.host7.app[2].typename = "UdpBasicApp"
*.host7.app[2].destAddresses = "host13"
*.host7.app[2].source.packetNameFormat = "%M-%m-%c"
*.host7.app[2].source.displayStringTextFormat = "sent %p pk (%l)"
*.host7.app[2].messageLength = 19B
*.host7.app[2].sendInterval = 1ms
*.host7.app[2].startTime = 29ms
*.host7.app[2].stopTime = 81ms
*.host7.app[2].display-name = "type2_1"
*.host7.app[2].destPort = 1000
*.host7.app[3].typename = "UdpBasicApp"
*.host7.app[3].destAddresses = "host13"
*.host7.app[3].source.packetNameFormat = "%M-%m-%c"
*.host7.app[3].source.displayStringTextFormat = "sent %p pk (%l)"
*.host7.app[3].messageLength = 19B
*.host7.app[3].sendInterval = 1ms
*.host7.app[3].startTime = 87ms
*.host7.app[3].stopTime = 92ms
*.host7.app[3].display-name = "type2_1"
*.host7.app[3].destPort = 1000
*.host7.app[4].typename = "UdpSinkApp"
*.host7.app[4].io.localPort = 1000
*.host7.app[5].typename = "UdpSinkApp"
*.host7.app[5].io.localPort = 1001
*.host8.numApps = 14
*.host8.app[0].typename = "UdpSourceApp"
*.host8.app[0].io.destAddress = "host6"
*.host8.app[0].source.packetNameFormat = "%M-%m-%c"
*.host8.app[0].source.displayStringTextFormat = "sent %p pk (%l)"
*.host8.app[0].source.packetLength = 24B
*.host8.app[0].source.productionInterval = 1ms
*.host8.app[0].display-name = "type1_3"
*.host8.app[0].io.destPort = 1001
*.host8.app[1].typename = "UdpBasicApp"
*.host8.app[1].destAddresses = "host1"
*.host8.app[1].source.packetNameFormat = "%M-%m-%c"
*.host8.app[1].source.displayStringTextFormat = "sent %p pk (%l)"
*.host8.app[1].messageLength = 15B
*.host8.app[1].sendInterval = 1ms
*.host8.app[1].startTime = 9ms
*.host8.app[1].stopTime = 39ms
*.host8.app[1].display-name = "type2_0"
*.host8.app[1].destPort = 1000
*.host8.app[2].typename = "UdpBasicApp"
*.host8.app[2].destAddresses = "host1"
*.host8.app[2].source.packetNameFormat = "%M-%m-%c"
*.host8.app[2].source.displayStringTextFormat = "sent %p pk (%l)"
*.host8.app[2].messageLength = 15B
*.host8.app[2].sendInterval = 1ms
*.host8.app[2].startTime = 58ms
*.host8.app[2].stopTime = 72ms
*.host8.app[2].display-name = "type2_0"
*.host8.app[2].destPort = 1000
*.host8.app[3].typename = "UdpBasicApp"
*.host8.app[3].destAddresses = "host1"
*.host8.app[3].source.packetNameFormat = "%M-%m-%c"
*.host8.app[3].source.displayStringTextFormat = "sent %p pk (%l)"
*.host8.app[3].messageLength = 15B
*.host8.app[3].sendInterval = 1ms
*.host8.app[3].startTime = 85ms
*.host8.app[3].stopTime = 91ms
*.host8.app[3].display-name = "type2_0"
*.host8.app[3].destPort = 1000
*.host8.app[4].typename = "UdpBasicApp"
*.host8.app[4].destAddresses = "host1"
*.host8.app[4].source.packetNameFormat = "%M-%m-%c"
*.host8.app[4].source.displayStringTextFormat = "sent %p pk (%l)"
*.host8.app[4].messageLength = 15B
*.host8.app[4].sendInterval = 1ms
*.host8.app[4].startTime = 96ms
*.host8.app[4].stopTime = 100ms
*.host8.app[4].display-name = "type2_0"
*.host8.app[4].destPort = 1000
*.host8.app[5].typename = "UdpBasicApp"
*.host8.app[5].destAddresses = "host5"
*.host8.app[5].source.packetNameFormat = "%M-%m-%c"
*.host8.app[5].source.displayStringTextFormat = "sent %p pk (%l)"
*.host8.app[5].messageLength = 24B
*.host8.app[5].sendInterval = 1ms
*.host8.app[5].startTime = 2ms
*.host8.app[5].stopTime = 17ms
*.host8.app[5].display-name = "type2_2"
*.host8.app[5].destPort = 1000
*.host8.app[6].typename = "UdpBasicApp"
*.host8.app[6].destAddresses = "host5"
*.host8.app[6].source.packetNameFormat = "%M-%m-%c"
*.host8.app[6].source.displayStringTextFormat = "sent %p pk (%l)"
*.host8.app[6].messageLength = 24B
*.host8.app[6].sendInterval = 1ms
*.host8.app[6].startTime = 36ms
*.host8.app[6].stopTime = 52ms
*.host8.app[6].display-name = "type2_2"
*.host8.app[6].destPort = 1000
*.host8.app[7].typename = "UdpBasicApp"
*.host8.app[7].destAddresses = "host5"
*.host8.app[7].source.packetNameFormat = "%M-%m-%c"
*.host8.app[7].source.displayStringTextFormat = "sent %p pk (%l)"
*.host8.app[7].messageLength = 24B
*.host8.app[7].sendInterval = 1ms
*.host8.app[7].startTime = 60ms
*.host8.app[7].stopTime = 75ms
*.host8.app[7].display-name = "type2_2"
*.host8.app[7].destPort = 1000
*.host8.app[8].typename = "UdpBasicApp"
*.host8.app[8].destAddresses = "host5"
*.host8.app[8].source.packetNameFormat = "%M-%m-%c"
*.host8.app[8].source.displayStringTextFormat = "sent %p pk (%l)"
*.host8.app[8].messageLength = 24B
*.host8.app[8].sendInterval = 1ms
*.host8.app[8].startTime = 85ms
*.host8.app[8].stopTime = 93ms
*.host8.app[8].display-name = "type2_2"
*.host8.app[8].destPort = 1000
*.host8.app[9].typename = "UdpBasicApp"
*.host8.app[9].destAddresses = "host14"
*.host8.app[9].source.packetNameFormat = "%M-%m-%c"
*.host8.app[9].source.displayStringTextFormat = "sent %p pk (%l)"
*.host8.app[9].messageLength = 19B
*.host8.app[9].sendInterval = 1ms
*.host8.app[9].startTime = 0ms
*.host8.app[9].stopTime = 6ms
*.host8.app[9].display-name = "type2_3"
*.host8.app[9].destPort = 1000
*.host8.app[10].typename = "UdpBasicApp"
*.host8.app[10].destAddresses = "host14"
*.host8.app[10].source.packetNameFormat = "%M-%m-%c"
*.host8.app[10].source.displayStringTextFormat = "sent %p pk (%l)"
*.host8.app[10].messageLength = 19B
*.host8.app[10].sendInterval = 1ms
*.host8.app[10].startTime = 11ms
*.host8.app[10].stopTime = 44ms
*.host8.app[10].display-name = "type2_3"
*.host8.app[10].destPort = 1000
*.host8.app[11].typename = "UdpBasicApp"
*.host8.app[11].destAddresses = "host14"
*.host8.app[11].source.packetNameFormat = "%M-%m-%c"
*.host8.app[11].source.displayStringTextFormat = "sent %p pk (%l)"
*.host8.app[11].messageLength = 19B
*.host8.app[11].sendInterval = 1ms
*.host8.app[11].startTime = 45ms
*.host8.app[11].stopTime = 53ms
*.host8.app[11].display-name = "type2_3"
*.host8.app[11].destPort = 1000
*.host8.app[12].typename = "UdpBasicApp"
*.host8.app[12].destAddresses = "host14"
*.host8.app[12].source.packetNameFormat = "%M-%m-%c"
*.host8.app[12].source.displayStringTextFormat = "sent %p pk (%l)"
*.host8.app[12].messageLength = 19B
*.host8.app[12].sendInterval = 1ms
*.host8.app[12].startTime = 59ms
*.host8.app[12].stopTime = 84ms
*.host8.app[12].display-name = "type2_3"
*.host8.app[12].destPort = 1000
*.host8.app[13].typename = "UdpBasicApp"
*.host8.app[13].destAddresses = "host14"
*.host8.app[13].source.packetNameFormat = "%M-%m-%c"
*.host8.app[13].source.displayStringTextFormat = "sent %p pk (%l)"
*.host8.app[13].messageLength = 19B
*.host8.app[13].sendInterval = 1ms
*.host8.app[13].startTime = 94ms
*.host8.app[13].stopTime = 99ms
*.host8.app[13].display-name = "type2_3"
*.host8.app[13].destPort = 1000
*.host9.numApps = 1
*.host9.app[0].typename = "UdpSourceApp"
*.host9.app[0].io.destAddress = "host0"
*.host9.app[0].source.packetNameFormat = "%M-%m-%c"
*.host9.app[0].source.displayStringTextFormat = "sent %p pk (%l)"
*.host9.app[0].source.packetLength = 22B
*.host9.app[0].source.productionInterval = 1ms
*.host9.app[0].display-name = "type1_0"
*.host9.app[0].io.destPort = 1000
*.host10.numApps = 13
*.host10.app[0].typename = "UdpBasicApp"
*.host10.app[0].destAddresses = "host7"
*.host10.app[0].source.packetNameFormat = "%M-%m-%c"
*.host10.app[0].source.displayStringTextFormat = "sent %p pk (%l)"
*.host10.app[0].messageLength = 16B
*.host10.app[0].sendInterval = 1ms
*.host10.app[0].startTime = 2ms
*.host10.app[0].stopTime = 14ms
*.host10.app[0].display-name = "type2_7"
*.host10.app[0].destPort = 1001
*.host10.app[1].typename = "UdpBasicApp"
*.host10.app[1].destAddresses = "host7"
*.host10.app[1].source.packetNameFormat = "%M-%m-%c"
*.host10.app[1].source.displayStringTextFormat = "sent %p pk (%l)"
*.host10.app[1].messageLength = 16B
*.host10.app[1].sendInterval = 1ms
*.host10.app[1].startTime = 21ms
*.host10.app[1].stopTime = 26ms
*.host10.app[1].display-name = "type2_7"
*.host10.app[1].destPort = 1001
*.host10.app[2].typename = "UdpBasicApp"
*.host10.app[2].destAddresses = "host7"
*.host10.app[2].source.packetNameFormat = "%M-%m-%c"
*.host10.app[2].source.displayStringTextFormat = "sent %p pk (%l)"
*.host10.app[2].messageLength = 16B
*.host10.app[2].sendInterval = 1ms
*.host10.app[2].startTime = 39ms
*.host10.app[2].stopTime = 40ms
*.host10.app[2].display-name = "type2_7"
*.host10.app[2].destPort = 1001
*.host10.app[3].typename = "UdpBasicApp"
*.host10.app[3].destAddresses = "host7"
*.host10.app[3].source.packetNameFormat = "%M-%m-%c"
*.host10.app[3].source.displayStringTextFormat = "sent %p pk (%l)"
*.host10.app[3].messageLength = 16B
*.host10.app[3].sendInterval = 1ms
*.host10.app[3].startTime = 42ms
*.host10.app[3].stopTime = 53ms
*.host10.app[3].display-name = "type2_7"
*.host10.app[3].destPort = 1001
*.host10.app[4].typename = "UdpBasicApp"
*.host10.app[4].destAddresses = "host7"
*.host10.app[4].source.packetNameFormat = "%M-%m-%c"
*.host10.app[4].source.displayStringTextFormat = "sent %p pk (%l)"
*.host10.app[4].messageLength = 16B
*.host10.app[4].sendInterval = 1ms
*.host10.app[4].startTime = 54ms
*.host10.app[4].stopTime = 56ms
*.host10.app[4].display-name = "type2_7"
*.host10.app[4].destPort = 1001
*.host10.app[5].typename = "UdpBasicApp"
*.host10.app[5].destAddresses = "host7"
*.host10.app[5].source.packetNameFormat = "%M-%m-%c"
*.host10.app[5].source.displayStringTextFormat = "sent %p pk (%l)"
*.host10.app[5].messageLength = 16B
*.host10.app[5].sendInterval = 1ms
*.host10.app[5].startTime = 82ms
*.host10.app[5].stopTime = 83ms
*.host10.app[5].display-name = "type2_7"
*.host10.app[5].destPort = 1001
*.host10.app[6].typename = "UdpBasicApp"
*.host10.app[6].destAddresses = "host7"
*.host10.app[6].source.packetNameFormat = "%M-%m-%c"
*.host10.app[6].source.displayStringTextFormat = "sent %p pk (%l)"
*.host10.app[6].messageLength = 16B
*.host10.app[6].sendInterval = 1ms
*.host10.app[6].startTime = 90ms
*.host10.app[6].stopTime = 100ms
*.host10.app[6].display-name = "type2_7"
*.host10.app[6].destPort = 1001
*.host10.app[7].typename = "UdpBasicApp"
*.host10.app[7].destAddresses = "host4"
*.host10.app[7].source.packetNameFormat = "%M-%m-%c"
*.host10.app[7].source.displayStringTextFormat = "sent %p pk (%l)"
*.host10.app[7].messageLength = 21B
*.host10.app[7].sendInterval = 1ms
*.host10.app[7].startTime = 30ms
*.host10.app[7].stopTime = 51ms
*.host10.app[7].display-name = "type2_8"
*.host10.app[7].destPort = 1000
*.host10.app[8].typename = "UdpBasicApp"
*.host10.app[8].destAddresses = "host4"
*.host10.app[8].source.packetNameFormat = "%M-%m-%c"
*.host10.app[8].source.displayStringTextFormat = "sent %p pk (%l)"
*.host10.app[8].messageLength = 21B
*.host10.app[8].sendInterval = 1ms
*.host10.app[8].startTime = 60ms
*.host10.app[8].stopTime = 64ms
*.host10.app[8].display-name = "type2_8"
*.host10.app[8].destPort = 1000
*.host10.app[9].typename = "UdpBasicApp"
*.host10.app[9].destAddresses = "host4"
*.host10.app[9].source.packetNameFormat = "%M-%m-%c"
*.host10.app[9].source.displayStringTextFormat = "sent %p pk (%l)"
*.host10.app[9].messageLength = 21B
*.host10.app[9].sendInterval = 1ms
*.host10.app[9].startTime = 65ms
*.host10.app[9].stopTime = 75ms
*.host10.app[9].display-name = "type2_8"
*.host10.app[9].destPort = 1000
*.host10.app[10].typename = "UdpBasicApp"
*.host10.app[10].destAddresses = "host4"
*.host10.app[10].source.packetNameFormat = "%M-%m-%c"
*.host10.app[10].source.displayStringTextFormat = "sent %p pk (%l)"
*.host10.app[10].messageLength = 21B
*.host10.app[10].sendInterval = 1ms
*.host10.app[10].startTime = 79ms
*.host10.app[10].stopTime = 84ms
*.host10.app[10].display-name = "type2_8"
*.host10.app[10].destPort = 1000
*.host10.app[11].typename = "UdpBasicApp"
*.host10.app[11].destAddresses = "host4"
*.host10.app[11].source.packetNameFormat = "%M-%m-%c"
*.host10.app[11].source.displayStringTextFormat = "sent %p pk (%l)"
*.host10.app[11].messageLength = 21B
*.host10.app[11].sendInterval = 1ms
*.host10.app[11].startTime = 89ms
*.host10.app[11].stopTime = 97ms
*.host10.app[11].display-name = "type2_8"
*.host10.app[11].destPort = 1000
*.host10.app[12].typename = "UdpBasicApp"
*.host10.app[12].destAddresses = "host4"
*.host10.app[12].source.packetNameFormat = "%M-%m-%c"
*.host10.app[12].source.displayStringTextFormat = "sent %p pk (%l)"
*.host10.app[12].messageLength = 21B
*.host10.app[12].sendInterval = 1ms
*.host10.app[12].startTime = 98ms
*.host10.app[12].stopTime = 100ms
*.host10.app[12].display-name = "type2_8"
*.host10.app[12].destPort = 1000
*.host11.numApps = 0
*.host12.numApps = 6
*.host12.app[0].typename = "UdpSinkApp"
*.host12.app[0].io.localPort = 1000
*.host12.app[1].typename = "UdpBasicApp"
*.host12.app[1].destAddresses = "host7"
*.host12.app[1].source.packetNameFormat = "%M-%m-%c"
*.host12.app[1].source.displayStringTextFormat = "sent %p pk (%l)"
*.host12.app[1].messageLength = 15B
*.host12.app[1].sendInterval = 1ms
*.host12.app[1].startTime = 6ms
*.host12.app[1].stopTime = 8ms
*.host12.app[1].display-name = "type2_4"
*.host12.app[1].destPort = 1000
*.host12.app[2].typename = "UdpBasicApp"
*.host12.app[2].destAddresses = "host7"
*.host12.app[2].source.packetNameFormat = "%M-%m-%c"
*.host12.app[2].source.displayStringTextFormat = "sent %p pk (%l)"
*.host12.app[2].messageLength = 15B
*.host12.app[2].sendInterval = 1ms
*.host12.app[2].startTime = 16ms
*.host12.app[2].stopTime = 18ms
*.host12.app[2].display-name = "type2_4"
*.host12.app[2].destPort = 1000
*.host12.app[3].typename = "UdpBasicApp"
*.host12.app[3].destAddresses = "host7"
*.host12.app[3].source.packetNameFormat = "%M-%m-%c"
*.host12.app[3].source.displayStringTextFormat = "sent %p pk (%l)"
*.host12.app[3].messageLength = 15B
*.host12.app[3].sendInterval = 1ms
*.host12.app[3].startTime = 19ms
*.host12.app[3].stopTime = 60ms
*.host12.app[3].display-name = "type2_4"
*.host12.app[3].destPort = 1000
*.host12.app[4].typename = "UdpBasicApp"
*.host12.app[4].destAddresses = "host7"
*.host12.app[4].source.packetNameFormat = "%M-%m-%c"
*.host12.app[4].source.displayStringTextFormat = "sent %p pk (%l)"
*.host12.app[4].messageLength = 15B
*.host12.app[4].sendInterval = 1ms