[General]
network = TSN_multipath
sim-time-limit = 100ms
*.macForwardingTableConfigurator.typename = ""
*.*.hasStreamRedundancy = true
*.*.bridging.streamRelay.typename = "StreamRelayLayer"
*.*.bridging.streamCoder.typename = "StreamCoderLayer"
*.streamRedundancyConfigurator.typename = "StreamRedundancyConfigurator"
*.host0.eth[0].bitrate = 1000Mbps
*.switch0.eth[0].bitrate = 1000Mbps
*.switch0.eth[1].bitrate = 1400Mbps
*.switch0.eth[2].bitrate = 2200Mbps
*.switch0.eth[3].bitrate = 1800Mbps
*.switch0.eth[4].bitrate = 1300Mbps
*.switch0.eth[5].bitrate = 2000Mbps
*.switch0.eth[6].bitrate = 2300Mbps
*.switch0.eth[7].bitrate = 2300Mbps
*.switch0.eth[8].bitrate = 1800Mbps
*.host1.eth[0].bitrate = 1000Mbps
*.switch1.eth[0].bitrate = 1000Mbps
*.switch1.eth[1].bitrate = 1400Mbps
*.switch1.eth[2].bitrate = 1300Mbps
*.switch1.eth[3].bitrate = 2300Mbps
*.switch1.eth[4].bitrate = 2300Mbps
*.switch1.eth[5].bitrate = 1300Mbps
*.switch1.eth[6].bitrate = 1900Mbps
*.switch1.eth[7].bitrate = 2200Mbps
*.switch1.eth[8].bitrate = 2300Mbps
*.switch1.eth[9].bitrate = 2000Mbps
*.switch1.eth[10].bitrate = 1300Mbps
*.switch1.eth[11].bitrate = 1600Mbps
*.switch1.eth[12].bitrate = 1700Mbps
*.switch1.eth[13].bitrate = 1600Mbps
*.switch1.eth[14].bitrate = 1700Mbps
*.host2.eth[0].bitrate = 1000Mbps
*.switch2.eth[0].bitrate = 1000Mbps
*.switch2.eth[1].bitrate = 2300Mbps
*.switch2.eth[2].bitrate = 2000Mbps
*.switch2.eth[3].bitrate = 1300Mbps
*.switch2.eth[4].bitrate = 2400Mbps
*.switch2.eth[5].bitrate = 1900Mbps
*.switch2.eth[6].bitrate = 1500Mbps
*.switch2.eth[7].bitrate = 1700Mbps
*.switch2.eth[8].bitrate = 1200Mbps
*.switch2.eth[9].bitrate = 1900Mbps
*.switch2.eth[10].bitrate = 1900Mbps
*.switch2.eth[11].bitrate = 2400Mbps
*.host3.eth[0].bitrate = 1000Mbps
*.switch3.eth[0].bitrate = 1000Mbps
*.switch3.eth[1].bitrate = 2300Mbps
*.switch3.eth[2].bitrate = 2400Mbps
*.switch3.eth[3].bitrate = 1600Mbps
*.switch3.eth[4].bitrate = 1900Mbps
*.switch3.eth[5].bitrate = 1200Mbps
*.switch3.eth[6].bitrate = 1800Mbps
*.switch3.eth[7].bitrate = 1600Mbps
*.switch3.eth[8].bitrate = 2000Mbps
*.switch3.eth[9].bitrate = 2400Mbps
*.host4.eth[0].bitrate = 1000Mbps
*.switch4.eth[0].bitrate = 1000Mbps
*.switch4.eth[1].bitrate = 1300Mbps
*.switch4.eth[2].bitrate = 1900Mbps
*.switch4.eth[3].bitrate = 2400Mbps
*.switch4.eth[4].bitrate = 2300Mbps
*.switch4.eth[5].bitrate = 1700Mbps
*.switch4.eth[6].bitrate = 1800Mbps
*.host5.eth[0].bitrate = 1000Mbps
*.switch5.eth[0].bitrate = 1000Mbps
*.switch5.eth[1].bitrate = 1500Mbps
*.switch5.eth[2].bitrate = 2300Mbps
*.switch5.eth[3].bitrate = 1700Mbps
*.switch5.eth[4].bitrate = 1800Mbps
*.switch5.eth[5].bitrate = 2300Mbps
*.switch5.eth[6].bitrate = 2200Mbps
*.switch5.eth[7].bitrate = 1500Mbps
*.switch5.eth[8].bitrate = 1900Mbps
*.switch5.eth[9].bitrate = 1300Mbps
*.switch5.eth[10].bitrate = 1200Mbps
*.host6.eth[0].bitrate = 1000Mbps
*.switch6.eth[0].bitrate = 1000Mbps
*.switch6.eth[1].bitrate = 1900Mbps
*.switch6.eth[2].bitrate = 1700Mbps
*.switch6.eth[3].bitrate = 2200Mbps
*.switch6.eth[4].bitrate = 1600Mbps
*.switch6.eth[5].bitrate = 1900Mbps
*.switch6.eth[6].bitrate = 1800Mbps
*.host7.eth[0].bitrate = 1000Mbps
*.switch7.eth[0].bitrate = 1000Mbps
*.switch7.eth[1].bitrate = 2200Mbps
*.switch7.eth[2].bitrate = 2200Mbps
*.switch7.eth[3].bitrate = 1200Mbps
*.switch7.eth[4].bitrate = 1500Mbps
*.switch7.eth[5].bitrate = 1900Mbps
*.switch7.eth[6].bitrate = 1600Mbps
*.switch7.eth[7].bitrate = 2000Mbps
*.switch7.eth[8].bitrate = 1700Mbps
*.switch7.eth[9].bitrate = 1300Mbps
*.switch7.eth[10].bitrate = 1800Mbps
*.switch7.eth[11].bitrate = 2100Mbps
*.switch7.eth[12].bitrate = 2400Mbps
*.host8.eth[0].bitrate = 1000Mbps
*.switch8.eth[0].bitrate = 1000Mbps
*.switch8.eth[1].bitrate = 1800Mbps
*.switch8.eth[2].bitrate = 2300Mbps
*.switch8.eth[3].bitrate = 1900Mbps
*.switch8.eth[4].bitrate = 1200Mbps
*.switch8.eth[5].bitrate = 1800Mbps
*.switch8.eth[6].bitrate = 2300Mbps
*.switch8.eth[7].bitrate = 1700Mbps
*.switch8.eth[8].bitrate = 1800Mbps
*.switch8.eth[9].bitrate = 1800Mbps
*.switch8.eth[10].bitrate = 1700Mbps
*.host9.eth[0].bitrate = 1000Mbps
*.switch9.eth[0].bitrate = 1000Mbps
*.switch9.eth[1].bitrate = 2000Mbps
*.switch9.eth[2].bitrate = 1900Mbps
*.switch9.eth[3].bitrate = 2100Mbps
*.switch9.eth[4].bitrate = 1800Mbps
*.switch9.eth[5].bitrate = 1800Mbps
*.switch9.eth[6].bitrate = 2400Mbps
*.switch9.eth[7].bitrate = 1200Mbps
*.switch9.eth[8].bitrate = 1800Mbps
*.switch9.eth[9].bitrate = 2400Mbps
*.switch9.eth[10].bitrate = 1700Mbps
*.host0.numApps = 12
*.host0.app[0].typename = "UdpSinkApp"
*.host0.app[0].io.localPort = 1000
*.host0.app[1].typename = "UdpSourceApp"
*.host0.app[1].io.destAddress = "host2"
*.host0.app[1].source.packetNameFormat = "%M-%m-%c"
*.host0.app[1].source.displayStringTextFormat = "sent %p pk (%l)"
*.host0.app[1].source.packetLength = 17B
*.host0.app[1].source.productionInterval = 1ms
*.host0.app[1].display-name = "type1_3"
*.host0.app[1].io.destPort = 1001
*.host0.app[2].typename = "UdpBasicApp"
*.host0.app[2].destAddresses = "host5"
*.host0.app[2].source.packetNameFormat = "%M-%m-%c"
*.host0.app[2].source.displayStringTextFormat = "sent %p pk (%l)"
*.host0.app[2].messageLength = 17B
*.host0.app[2].sendInterval = 1ms
*.host0.app[2].startTime = 4ms
*.host0.app[2].stopTime = 5ms
*.host0.app[2].display-name = "type2_0"
*.host0.app[2].destPort = 1000
*.host0.app[3].typename = "UdpBasicApp"
*.host0.app[3].destAddresses = "host5"
*.host0.app[3].source.packetNameFormat = "%M-%m-%c"
*.host0.app[3].source.displayStringTextFormat = "sent %p pk (%l)"
*.host0.app[3].messageLength = 17B
*.host0.app[3].sendInterval = 1ms
*.host0.app[3].startTime = 9ms
*.host0.app[3].stopTime = 13ms
*.host0.app[3].display-name = "type2_0"
*.host0.app[3].destPort = 1000
*.host0.app[4].typename = "UdpBasicApp"
*.host0.app[4].destAddresses = "host5"
*.host0.app[4].source.packetNameFormat = "%M-%m-%c"
*.host0.app[4].source.displayStringTextFormat = "sent %p pk (%l)"
*.host0.app[4].messageLength = 17B
*.host0.app[4].sendInterval = 1ms
*.host0.app[4].startTime = 14ms
*.host0.app[4].stopTime = 21ms
*.host0.app[4].display-name = "type2_0"
*.host0.app[4].destPort = 1000
*.host0.app[5].typename = "UdpBasicApp"
*.host0.app[5].destAddresses = "host5"
*.host0.app[5].source.packetNameFormat = "%M-%m-%c"
*.host0.app[5].source.displayStringTextFormat = "sent %p pk (%l)"
*.host0.app[5].messageLength = 17B
*.host0.app[5].sendInterval = 1ms
*.host0.app[5].startTime = 25ms
*.host0.app[5].stopTime = 33ms
*.host0.app[5].display-name = "type2_0"
*.host0.app[5].destPort = 1000
*.host0.app[6].typename = "UdpBasicApp"
*.host0.app[6].destAddresses = "host5"
*.host0.app[6].source.packetNameFormat = "%M-%m-%c"
*.host0.app[6].source.displayStringTextFormat = "sent %p pk (%l)"
*.host0.app[6].messageLength = 17B
*.host0.app[6].sendInterval = 1ms
*.host0.app[6].startTime = 36ms
*.host0.app[6].stopTime = 49ms
*.host0.app[6].display-name = "type2_0"
*.host0.app[6].destPort = 1000
*.host0.app[7].typename = "UdpBasicApp"
*.host0.app[7].destAddresses = "host5"
*.host0.app[7].source.packetNameFormat = "%M-%m-%c"
*.host0.app[7].source.displayStringTextFormat = "sent %p pk (%l)"
*.host0.app[7].messageLength = 17B
*.host0.app[7].sendInterval = 1ms
*.host0.app[7].startTime = 69ms
*.host0.app[7].stopTime = 72ms
*.host0.app[7].display-name = "type2_0"
*.host0.app[7].destPort = 1000
*.host0.app[8].typename = "UdpBasicApp"
*.host0.app[8].destAddresses = "host5"
*.host0.app[8].source.packetNameFormat = "%M-%m-%c"
*.host0.app[8].source.displayStringTextFormat = "sent %p pk (%l)"
*.host0.app[8].messageLength = 17B
*.host0.app[8].sendInterval = 1ms
*.host0.app[8].startTime = 89ms
*.host0.app[8].stopTime = 93ms
*.host0.app[8].display-name = "type2_0"
*.host0.app[8].destPort = 1000
*.host0.app[9].typename = "UdpBasicApp"
*.host0.app[9].destAddresses = "host5"
*.host0.app[9].source.packetNameFormat = "%M-%m-%c"
*.host0.app[9].source.displayStringTextFormat = "sent %p pk (%l)"
*.host0.app[9].messageLength = 17B
*.host0.app[9].sendInterval = 1ms
*.host0.app[9].startTime = 94ms
*.host0.app[9].stopTime = 96ms
*.host0.app[9].display-name = "type2_0"
*.host0.app[9].destPort = 1000
*.host0.app[10].typename = "UdpSinkApp"
*.host0.app[10].io.localPort = 1001
*.host0.app[11].typename = "UdpSinkApp"
*.host0.app[11].io.localPort = 1002
*.host1.numApps = 9
*.host1.app[0].typename = "UdpSourceApp"
*.host1.app[0].io.destAddress = "host8"
*.host1.app[0].source.packetNameFormat = "%M-%m-%c"
*.host1.app[0].source.displayStringTextFormat = "sent %p pk (%l)"
*.host1.app[0].source.packetLength = 23B
*.host1.app[0].source.productionInterval = 1ms
*.host1.app[0].display-name = "type1_2"
*.host1.app[0].io.destPort = 1000
*.host1.app[1].typename = "UdpBasicApp"
*.host1.app[1].destAddresses = "host8"
*.host1.app[1].source.packetNameFormat = "%M-%m-%c"
*.host1.app[1].source.displayStringTextFormat = "sent %p pk (%l)"
*.host1.app[1].messageLength = 14B
*.host1.app[1].sendInterval = 1ms
*.host1.app[1].startTime = 0ms
*.host1.app[1].stopTime = 5ms
*.host1.app[1].display-name = "type2_3"
*.host1.app[1].destPort = 1001
*.host1.app[2].typename = "UdpBasicApp"
*.host1.app[2].destAddresses = "host8"
*.host1.app[2].source.packetNameFormat = "%M-%m-%c"
*.host1.app[2].source.displayStringTextFormat = "sent %p pk (%l)"
*.host1.app[2].messageLength = 14B
*.host1.app[2].sendInterval = 1ms
*.host1.app[2].startTime = 9ms
*.host1.app[2].stopTime = 17ms
*.host1.app[2].display-name = "type2_3"
*.host1.app[2].destPort = 1001
*.host1.app[3].typename = "UdpBasicApp"
*.host1.app[3].destAddresses = "host8"
*.host1.app[3].source.packetNameFormat = "%M-%m-%c"
*.host1.app[3].source.displayStringTextFormat = "sent %p pk (%l)"
*.host1.app[3].messageLength = 14B
*.host1.app[3].sendInterval = 1ms
*.host1.app[3].startTime = 20ms
*.host1.app[3].stopTime = 28ms
*.host1.app[3].display-name = "type2_3"
*.host1.app[3].destPort = 1001
*.host1.app[4].typename = "UdpBasicApp"
*.host1.app[4].destAddresses = "host8"
*.host1.app[4].source.packetNameFormat = "%M-%m-%c"
*.host1.app[4].source.displayStringTextFormat = "sent %p pk (%l)"
*.host1.app[4].messageLength = 14B
*.host1.app[4].sendInterval = 1ms
*.host1.app[4].startTime = 33ms
*.host1.app[4].stopTime = 38ms
*.host1.app[4].display-name = "type2_3"
*.host1.app[4].destPort = 1001
*.host1.app[5].typename = "UdpBasicApp"
*.host1.app[5].destAddresses = "host8"
*.host1.app[5].source.packetNameFormat = "%M-%m-%c"
*.host1.app[5].source.displayStringTextFormat = "sent %p pk (%l)"
*.host1.app[5].messageLength = 14B
*.host1.app[5].sendInterval = 1ms
*.host1.app[5].startTime = 49ms
*.host1.app[5].stopTime = 61ms
*.host1.app[5].display-name = "type2_3"
*.host1.app[5].destPort = 1001
*.host1.app[6].typename = "UdpBasicApp"
*.host1.app[6].destAddresses = "host8"
*.host1.app[6].source.packetNameFormat = "%M-%m-%c"
*.host1.app[6].source.displayStringTextFormat = "sent %p pk (%l)"
*.host1.app[6].messageLength = 14B
*.host1.app[6].sendInterval = 1ms
*.host1.app[6].startTime = 64ms
*.host1.app[6].stopTime = 66ms
*.host1.app[6].display-name = "type2_3"
*.host1.app[6].destPort = 1001
*.host1.app[7].typename = "UdpBasicApp"
*.host1.app[7].destAddresses = "host8"
*.host1.app[7].source.packetNameFormat = "%M-%m-%c"
*.host1.app[7].source.displayStringTextFormat = "sent %p pk (%l)"
*.host1.app[7].messageLength = 14B
*.host1.app[7].sendInterval = 1ms
*.host1.app[7].startTime = 67ms
*.host1.app[7].stopTime = 68ms
*.host1.app[7].display-name = "type2_3"
*.host1.app[7].destPort = 1001
*.host1.app[8].typename = "UdpBasicApp"
*.host1.app[8].destAddresses = "host8"
*.host1.app[8].source.packetNameFormat = "%M-%m-%c"
*.host1.app[8].source.displayStringTextFormat = "sent %p pk (%l)"
*.host1.app[8].messageLength = 14B
*.host1.app[8].sendInterval = 1ms
*.host1.app[8].startTime = 74ms
*.host1.app[8].stopTime = 100ms
*.host1.app[8].display-name = "type2_3"
*.host1.app[8].destPort = 1001
*.host2.numApps = 9
*.host2.app[0].typename = "UdpSinkApp"
*.host2.app[0].io.localPort = 1000
*.host2.app[1].typename = "UdpSourceApp"
*.host2.app[1].io.destAddress = "host0"
*.host2.app[1].source.packetNameFormat = "%M-%m-%c"
*.host2.app[1].source.displayStringTextFormat = "sent %p pk (%l)"
*.host2.app[1].source.packetLength = 21B
*.host2.app[1].source.productionInterval = 1ms
*.host2.app[1].display-name = "type1_1"
*.host2.app[1].io.destPort = 1000
*.host2.app[2].typename = "UdpSinkApp"
*.host2.app[2].io.localPort = 1001
*.host2.app[3].typename = "UdpSinkApp"
*.host2.app[3].io.localPort = 1002
*.host2.app[4].typename = "UdpBasicApp"
*.host2.app[4].destAddresses = "host0"
*.host2.app[4].source.packetNameFormat = "%M-%m-%c"
*.host2.app[4].source.displayStringTextFormat = "sent %p pk (%l)"
*.host2.app[4].messageLength = 24B
*.host2.app[4].sendInterval = 1ms
*.host2.app[4].startTime = 4ms
*.host2.app[4].stopTime = 12ms
*.host2.app[4].display-name = "type2_7"
*.host2.app[4].destPort = 1002
*.host2.app[5].typename = "UdpBasicApp"
*.host2.app[5].destAddresses = "host0"
*.host2.app[5].source.packetNameFormat = "%M-%m-%c"
*.host2.app[5].source.displayStringTextFormat = "sent %p pk (%l)"
*.host2.app[5].messageLength = 24B
*.host2.app[5].sendInterval = 1ms
*.host2.app[5].startTime = 21ms
*.host2.app[5].stopTime = 53ms
*.host2.app[5].display-name = "type2_7"
*.host2.app[5].destPort = 1002
*.host2.app[6].typename = "UdpBasicApp"
*.host2.app[6].destAddresses = "host0"
*.host2.app[6].source.packetNameFormat = "%M-%m-%c"
*.host2.app[6].source.displayStringTextFormat = "sent %p pk (%l)"
*.host2.app[6].messageLength = 24B
*.host2.app[6].sendInterval = 1ms
*.host2.app[6].startTime = 69ms
*.host2.app[6].stopTime = 83ms
*.host2.app[6].display-name = "type2_7"
*.host2.app[6].destPort = 1002
*.host2.app[7].typename = "UdpBasicApp"
*.host2.app[7].destAddresses = "host0"
*.host2.app[7].source.packetNameFormat = "%M-%m-%c"
*.host2.app[7].source.displayStringTextFormat = "sent %p pk (%l)"
*.host2.app[7].messageLength = 24B
*.host2.app[7].sendInterval = 1ms
*.host2.app[7].startTime = 85ms
*.host2.app[7].stopTime = 89ms
*.host2.app[7].display-name = "type2_7"
*.host2.app[7].destPort = 1002
*.host2.app[8].typename = "UdpBasicApp"
*.host2.app[8].destAddresses = "host0"
*.host2.app[8].source.packetNameFormat = "%M-%m-%c"
*.host2.app[8].source.displayStringTextFormat = "sent %p pk (%l)"
*.host2.app[8].messageLength = 24B
*.host2.app[8].sendInterval = 1ms
*.host2.app[8].startTime = 98ms
*.host2.app[8].stopTime = 100ms
*.host2.app[8].display-name = "type2_7"
*.host2.app[8].destPort = 1002
*.host3.numApps = 0
*.host4.numApps = 8
*.host4.app[0].typename = "UdpBasicApp"
*.host4.app[0].destAddresses = "host2"
*.host4.app[0].source.packetNameFormat = "%M-%m-%c"
*.host4.app[0].source.displayStringTextFormat = "sent %p pk (%l)"
*.host4.app[0].messageLength = 17B
*.host4.app[0].sendInterval = 1ms
*.host4.app[0].startTime = 2ms
*.host4.app[0].stopTime = 15ms
*.host4.app[0].display-name = "type2_5"
*.host4.app[0].destPort = 1002
*.host4.app[1].typename = "UdpBasicApp"
*.host4.app[1].destAddresses = "host2"
*.host4.app[1].source.packetNameFormat = "%M-%m-%c"
*.host4.app[1].source.displayStringTextFormat = "sent %p pk (%l)"
*.host4.app[1].messageLength = 17B
*.host4.app[1].sendInterval = 1ms
*.host4.app[1].startTime = 20ms
*.host4.app[1].stopTime = 25ms
*.host4.app[1].display-name = "type2_5"
*.host4.app[1].destPort = 1002
*.host4.app[2].typename = "UdpBasicApp"
*.host4.app[2].destAddresses = "host2"
*.host4.app[2].source.packetNameFormat = "%M-%m-%c"
*.host4.app[2].source.displayStringTextFormat = "sent %p pk (%l)"
*.host4.app[2].messageLength = 17B
*.host4.app[2].sendInterval = 1ms
*.host4.app[2].startTime = 27ms
*.host4.app[2].stopTime = 35ms
*.host4.app[2].display-name = "type2_5"
*.host4.app[2].destPort = 1002
*.host4.app[3].typename = "UdpBasicApp"
*.host4.app[3].destAddresses = "host2"
*.host4.app[3].source.packetNameFormat = "%M-%m-%c"
*.host4.app[3].source.displayStringTextFormat = "sent %p pk (%l)"
*.host4.app[3].messageLength = 17B
*.host4.app[3].sendInterval = 1ms
*.host4.app[3].startTime = 38ms
*.host4.app[3].stopTime = 40ms
*.host4.app[3].display-name = "type2_5"
*.host4.app[3].destPort = 1002
*.host4.app[4].typename = "UdpBasicApp"
*.host4.app[4].destAddresses = "host2"
*.host4.app[4].source.packetNameFormat = "%M-%m-%c"
*.host4.app[4].source.displayStringTextFormat = "sent %p pk (%l)"
*.host4.app[4].messageLength = 17B
*.host4.app[4].sendInterval = 1ms
*.host4.app[4].startTime = 42ms
*.host4.app[4].stopTime = 49ms
*.host4.app[4].display-name = "type2_5"
*.host4.app[4].destPort = 1002
*.host4.app[5].typename = "UdpBasicApp"
*.host4.app[5].destAddresses = "host2"
*.host4.app[5].source.packetNameFormat = "%M-%m-%c"
*.host4.app[5].source.displayStringTextFormat = "sent %p pk (%l)"
*.host4.app[5].messageLength = 17B
*.host4.app[5].sendInterval = 1ms
*.host4.app[5].startTime = 54ms
*.host4.app[5].stopTime = 59ms
*.host4.app[5].display-name = "type2_5"
*.host4.app[5].destPort = 1002
*.host4.app[6].typename = "UdpBasicApp"
*.host4.app[6].destAddresses = "host2"
*.host4.app[6].source.packetNameFormat = "%M-%m-%c"
*.host4.app[6].source.displayStringTextFormat = "sent %p pk (%l)"
*.host4.app[6].messageLength = 17B
*.host4.app[6].sendInterval = 1ms
*.host4.app[6].startTime = 61ms
*.host4.app[6].stopTime = 77ms
*.host4.app[6].display-name = "type2_5"
*.host4.app[6].destPort = 1002
*.host4.app[7].typename = "UdpBasicApp"
*.host4.app[7].destAddresses = "host2"
*.host4.app[7].source.packetNameFormat = "%M-%m-%c"
*.host4.app[7].source.displayStringTextFormat = "sent %p pk (%l)"
*.host4.app[7].messageLength = 17B
*.host4.app[7].sendInterval = 1ms
*.host4.app[7].startTime = 81ms
*.host4.app[7].stopTime = 87ms
*.host4.app[7].display-name = "type2_5"
*.host4.app[7].destPort = 1002
*.host5.numApps = 6
*.host5.app[0].typename = "UdpSinkApp"
*.host5.app[0].io.localPort = 1000
*.host5.app[1].typename = "UdpBasicApp"
*.host5.app[1].destAddresses = "host7"
*.host5.app[1].source.packetNameFormat = "%M-%m-%c"
*.host5.app[1].source.displayStringTextFormat = "sent %p pk (%l)"
*.host5.app[1].messageLength = 15B
*.host5.app[1].sendInterval = 1ms
*.host5.app[1].startTime = 1ms
*.host5.app[1].stopTime = 25ms
*.host5.app[1].display-name = "type2_1"
*.host5.app[1].destPort = 1000
*.host5.app[2].typename = "UdpBasicApp"
*.host5.app[2].destAddresses = "host7"
*.host5.app[2].source.packetNameFormat = "%M-%m-%c"
*.host5.app[2].source.displayStringTextFormat = "sent %p pk (%l)"
*.host5.app[2].messageLength = 15B
*.host5.app[2].sendInterval = 1ms
*.host5.app[2].startTime = 26ms
*.host5.app[2].stopTime = 52ms
*.host5.app[2].display-name = "type2_1"
*.host5.app[2].destPort = 1000
*.host5.app[3].typename = "UdpBasicApp"
*.host5.app[3].destAddresses = "host7"
*.host5.app[3].source.packetNameFormat = "%M-%m-%c"
*.host5.app[3].source.displayStringTextFormat = "sent %p pk (%l)"
*.host5.app[3].messageLength = 15B
*.host5.app[3].sendInterval = 1ms
*.host5.app[3].startTime = 61ms
*.host5.app[3].stopTime = 62ms
*.host5.app[3].display-name = "type2_1"
*.host5.app[3].destPort = 1000
*.host5.app[4].typename = "UdpBasicApp"
*.host5.app[4].destAddresses = "host7"
*.host5.app[4].source.packetNameFormat = "%M-%m-%c"
*.host5.app[4].source.displayStringTextFormat = "sent %p pk (%l)"
*.host5.app[4].messageLength = 15B
*.host5.app[4].sendInterval = 1ms
*.host5.app[4].startTime = 72ms
*.host5.app[4].stopTime = 80ms
*.host5.app[4].display-name = "type2_1"
*.host5.app[4].destPort = 1000
*.host5.app[5].typename = "UdpBasicApp"
*.host5.app[5].destAddresses = "host7"
*.host5.app[5].source.packetNameFormat = "%M-%m-%c"
*.host5.app[5].source.displayStringTextFormat = "sent %p pk (%l)"
*.host5.app[5].messageLength = 15B
*.host5.app[5].sendInterval = 1ms
*.host5.app[5].startTime = 83ms
*.host5.app[5].stopTime = 97ms
*.host5.app[5].display-name = "type2_1"
*.host5.app[5].destPort = 1000
*.host6.numApps = 0
*.host7.numApps = 4
*.host7.app[0].typename = "UdpSourceApp"
*.host7.app[0].io.destAddress = "host2"
*.host7.app[0].source.packetNameFormat = "%M-%m-%c"
*.host7.app[0].source.displayStringTextFormat = "sent %p pk (%l)"
*.host7.app[0].source.packetLength = 14B
*.host7.app[0].source.productionInterval = 1ms
*.host7.app[0].display-name = "type1_0"
*.host7.app[0].io.destPort = 1000
*.host7.app[1].typename = "UdpSinkApp"
*.host7.app[1].io.localPort = 1000
*.host7.app[2].typename = "UdpSinkApp"
*.host7.app[2].io.localPort = 1001
*.host7.app[3].typename = "UdpSinkApp"
*.host7.app[3].io.localPort = 1002
*.host8.numApps = 7
*.host8.app[0].typename = "UdpSinkApp"
*.host8.app[0].io.localPort = 1000
*.host8.app[1].typename = "UdpSinkApp"
*.host8.app[1].io.localPort = 1001
*.host8.app[2].typename = "UdpBasicApp"
*.host8.app[2].destAddresses = "host0"
*.host8.app[2].source.packetNameFormat = "%M-%m-%c"
*.host8.app[2].source.displayStringTextFormat = "sent %p pk (%l)"
*.host8.app[2].messageLength = 21B
*.host8.app[2].sendInterval = 1ms
*.host8.app[2].startTime = 0ms
*.host8.app[2].stopTime = 4ms
*.host8.app[2].display-name = "type2_6"
*.host8.app[2].destPort = 1001
*.host8.app[3].typename = "UdpBasicApp"
*.host8.app[3].destAddresses = "host0"
*.host8.app[3].source.packetNameFormat = "%M-%m-%c"
*.host8.app[3].source.displayStringTextFormat = "sent %p pk (%l)"
*.host8.app[3].messageLength = 21B
*.host8.app[3].sendInterval = 1ms
*.host8.app[3].startTime = 12ms
*.host8.app[3].stopTime = 26ms
*.host8.app[3].display-name = "type2_6"
*.host8.app[3].destPort = 1001
*.host8.app[4].typename = "UdpBasicApp"
*.host8.app[4].destAddresses = "host0"
*.host8.app[4].source.packetNameFormat = "%M-%m-%c"
*.host8.app[4].source.displayStringTextFormat = "sent %p pk (%l)"
*.host8.app[4].messageLength = 21B
*.host8.app[4].sendInterval = 1ms
*.host8.app[4].startTime = 27ms
*.host8.app[4].stopTime = 49ms
*.host8.app[4].display-name = "type2_6"
*.host8.app[4].destPort = 1001
*.host8.app[5].typename = "UdpBasicApp"
*.host8.app[5].destAddresses = "host0"
*.host8.app[5].source.packetNameFormat = "%M-%m-%c"
*.host8.app[5].source.displayStringTextFormat = "sent %p pk (%l)"
*.host8.app[5].messageLength = 21B
*.host8.app[5].sendInterval = 1ms
*.host8.app[5].startTime = 56ms
*.host8.app[5].stopTime = 73ms
*.host8.app[5].display-name = "type2_6"
*.host8.app[5].destPort = 1001
*.host8.app[6].typename = "UdpBasicApp"
*.host8.app[6].destAddresses = "host0"
*.host8.app[6].source.packetNameFormat = "%M-%m-%c"
*.host8.app[6].source.displayStringTextFormat = "sent %p pk (%l)"
*.host8.app[6].messageLength = 21B
*.host8.app[6].sendInterval = 1ms
*.host8.app[6].startTime = 85ms
*.host8.app[6].stopTime = 100ms
*.host8.app[6].display-name = "type2_6"
*.host8.app[6].destPort = 1001
*.host9.numApps = 14
*.host9.app[0].typename = "UdpBasicApp"
*.host9.app[0].destAddresses = "host7"
*.host9.app[0].source.packetNameFormat = "%M-%m-%c"
*.host9.app[0].source.displayStringTextFormat = "sent %p pk (%l)"
*.host9.app[0].messageLength = 22B
*.host9.app[0].sendInterval = 1ms
*.host9.app[0].startTime = 12ms
*.host9.app[0].stopTime = 15ms
*.host9.app[0].display-name = "type2_2"
*.host9.app[0].destPort = 1001
*.host9.app[1].typename = "UdpBasicApp"
*.host9.app[1].destAddresses = "host7"
*.host9.app[1].source.packetNameFormat = "%M-%m-%c"
*.host9.app[1].source.displayStringTextFormat = "sent %p pk (%l)"
*.host9.app[1].messageLength = 22B
*.host9.app[1].sendInterval = 1ms
*.host9.app[1].startTime = 23ms
*.host9.app[1].stopTime = 24ms
*.host9.app[1].display-name = "type2_2"
*.host9.app[1].destPort = 1001
*.host9.app[2].typename = "UdpBasicApp"
*.host9.app[2].destAddresses = "host7"
*.host9.app[2].source.packetNameFormat = "%M-%m-%c"
*.host9.app[2].source.displayStringTextFormat = "sent %p pk (%l)"
*.host9.app[2].messageLength = 22B
*.host9.app[2].sendInterval = 1ms
*.host9.app[2].startTime = 27ms
*.host9.app[2].stopTime = 36ms
*.host9.app[2].display-name = "type2_2"
*.host9.app[2].destPort = 1001
*.host9.app[3].typename = "UdpBasicApp"
*.host9.app[3].destAddresses = "host7"
*.host9.app[3].source.packetNameFormat = "%M-%m-%c"
*.host9.app[3].source.displayStringTextFormat = "sent %p pk (%l)"
*.host9.app[3].messageLength = 22B
*.host9.app[3].sendInterval = 1ms
*.host9.app[3].startTime = 37ms
*.host9.app[3].stopTime = 49ms
*.host9.app[3].display-name = "type2_2"
*.host9.app[3].destPort = 1001
*.host9.app[4].typename = "UdpBasicApp"
*.host9.app[4].destAddresses = "host7"
*.host9.app[4].source.packetNameFormat = "%M-%m-%c"
*.host9.app[4].source.displayStringTextFormat = "sent %p pk (%l)"
*.host9.app[4].messageLength = 22B
*.host9.app[4].sendInterval = 1ms
*.host9.app[4].startTime = 51ms
*.host9.app[4].stopTime = 70ms
*.host9.app[4].display-name = "type2_2"
*.host9.app[4].destPort = 1001
*.host9.app[5].typename = "UdpBasicApp"
*.host9.app[5].destAddresses = "host7"
*.host9.app[5].source.packetNameFormat = "%M-%m-%c"
*.host9.app[5].source.displayStringTextFormat = "sent %p pk (%l)"
*.host9.app[5].messageLength = 22B
*.host9.app[5].sendInterval = 1ms
*.host9.app[5].startTime = 75ms
*.host9.app[5].stopTime = 79ms
*.host9.app[5].display-name = "type2_2"
*.host9.app[5].destPort = 1001
*.host9.app[6].typename = "UdpBasicApp"
*.host9.app[6].destAddresses = "host7"
*.host9.app[6].source.packetNameFormat = "%M-%m-%c"
*.host9.app[6].source.displayStringTextFormat = "sent %p pk (%l)"
*.host9.app[6].messageLength = 22B
*.host9.app[6].sendInterval = 1ms
*.host9.app[6].startTime = 97ms
*.host9.app[6].stopTime = 100ms
*.host9.app[6].display-name = "type2_2"
*.host9.app[6].destPort = 1001
*.host9.app[7].typename = "UdpBasicApp"
*.host9.app[7].destAddresses = "host7"
*.host9.app[7].source.packetNameFormat = "%M-%m-%c"
*.host9.app[7].source.displayStringTextFormat = "sent %p pk (%l)"
*.host9.app[7].messageLength = 13B
*.host9.app[7].sendInterval = 1ms
*.host9.app[7].startTime = 2ms
*.host9.app[7].stopTime = 5ms
*.host9.app[7].display-name = "type2_4"
*.host9.app[7].destPort = 1002
*.host9.app[8].typename = "UdpBasicApp"
*.host9.app[8].destAddresses = "host7"
*.host9.app[8].source.packetNameFormat = "%M-%m-%c"
*.host9.app[8].source.displayStringTextFormat = "sent %p pk (%l)"
*.host9.app[8].messageLength = 13B
*.host9.app[8].sendInterval = 1ms
*.host9.app[8].startTime = 6ms
*.host9.app[8].stopTime = 11ms
*.host9.app[8].display-name = "type2_4"
*.host9.app[8].destPort = 1002
*.host9.app[9].typename = "UdpBasicApp"
*.host9.app[9].destAddresses = "host7"
*.host9.app[9].source.packetNameFormat = "%M-%m-%c"
*.host9.app[9].source.displayStringTextFormat = "sent %p pk (%l)"
*.host9.app[9].messageLength = 13B
*.host9.app[9].sendInterval = 1ms
*.host9.app[9].startTime = 19ms
*.host9.app[9].stopTime = 26ms
*.host9.app[9].display-name = "type2_4"
*.host9.app[9].destPort = 1002
*.host9.app[10].typename = "UdpBasicApp"
*.host9.app[10].destAddresses = "host7"
*.host9.app[10].source.packetNameFormat = "%M-%m-%c"
*.host9.app[10].source.displayStringTextFormat = "sent %p pk (%l)"
*.host9.app[10].messageLength = 13B
*.host9.app[10].sendInterval = 1ms
*.host9.app[10].startTime = 39ms
*.host9.app[10].stopTime = 42ms
*.host9.app[10].display-name = "type2_4"
*.host9.app[10].destPort = 1002
*.host9.app[11].typename = "UdpBasicApp"
*.host9.app[11].destAddresses = "host7"
*.host9.app[11].source.packetNameFormat = "%M-%m-%c"
*.host9.app[11].source.displayStringTextFormat = "sent %p pk (%l)"
*.host9.app[11].messageLength = 13B
*.host9.app[11].sendInterval = 1ms
*.host9.app[11].startTime = 83ms
*.host9.app[11].stopTime = 85ms
*.host9.app[11].display-name = "type2_4"
*.host9.app[11].destPort = 1002
*.host9.app[12].typename = "UdpBasicApp"
*.host9.app[12].destAddresses = "host7"
*.host9.app[12].source.packetNameFormat = "%M-%m-%c"
*.host9.app[12].source.displayStringTextFormat = "sent %p pk (%l)"
*.host9.app[12].messageLength = 13B
*.host9.app[12].sendInterval = 1ms
*.host9.app[12].startTime = 91ms
*.host9.app[12].stopTime = 94ms
*.host9.app[12].display-name = "type2_4"
*.host9.app[12].destPort = 1002
*.host9.app[13].typename = "UdpBasicApp"
*.host9.app[13].destAddresses = "host7"
*.host9.app[13].source.packetNameFormat = "%M-%m-%c"
*.host9.app[13].source.displayStringTextFormat = "sent %p pk (%l)"
*.host9.app[13].messageLength = 13B
*.host9.app[13].sendInterval = 1ms
*.host9.app[13].startTime = 95ms
*.host9.app[13].stopTime = 100ms
*.host9.app[13].display-name = "type2_4"
*.host9.app[13].destPort = 1002
*.streamRedundancyConfigurator.configuration = [
	{
		name: "S1-0",
		packetFilter: "*-type1_0-*",
		source: "host7",
		destination: "host2",
		trees: [[["host7", "switch7", "switch9", "switch3", "switch2", "host2"]]]
	},
	{
		name: "S1-1",
		packetFilter: "*-type1_1-*",
		source: "host2",
		destination: "host0",
		trees: [[["host2", "switch2", "switch3", "switch1", "switch8", "switch0", "host0"]]]
	},
	{
		name: "S1-2",
		packetFilter: "*-type1_2-*",
		source: "host1",
		destination: "host8",
		trees: [[["host1", "switch1", "switch8", "host8"]]]
	},
	{
		name: "S1-3",
		packetFilter: "*-type1_3-*",
		source: "host0",
		destination: "host2",
		trees: [[["host0", "switch0", "switch7", "switch9", "switch3", "switch2", "host2"]]]
	},
	{
		name: "S2-0",
		packetFilter: "*-type2_0-*",
		source: "host0",
		destination: "host5",
		trees: [[["host0", "switch0", "switch7", "switch1", "switch2", "switch5", "host5"]]]
	},
	{
		name: "S2-1",
		packetFilter: "*-type2_1-*",
		source: "host5",
		destination: "host7",
		trees: [[["host5", "switch5", "switch9", "switch8", "switch0", "switch7", "host7"]]]
	},
	{
		name: "S2-2",
		packetFilter: "*-type2_2-*",
		source: "host9",
		destination: "host7",
		trees: [[["host9", "switch9", "switch8", "switch0", "switch7", "host7"]]]
	},
	{
		name: "S2-3",
		packetFilter: "*-type2_3-*",
		source: "host1",
		destination: "host8",
		trees: [[["host1", "switch1", "switch2", "switch5", "switch9", "switch8", "host8"]]]
	},
	{
		name: "S2-4",
		packetFilter: "*-type2_4-*",
		source: "host9",
		destination: "host7",
		trees: [[["host9", "switch9", "switch8", "switch0", "switch7", "host7"]]]
	},
	{
		name: "S2-5",
		packetFilter: "*-type2_5-*",
		source: "host4",
		destination: "host2",