[General]
network = TSN_multipath
sim-time-limit = 100ms
*.macForwardingTableConfigurator.typename = ""
*.*.hasStreamRedundancy = true
*.*.bridging.streamRelay.typename = "StreamRelayLayer"
*.*.bridging.streamCoder.typename = "StreamCoderLayer"
*.streamRedundancyConfigurator.typename = "StreamRedundancyConfigurator"
*.host0.eth[0].bitrate = 1000Mbps
*.switch0.eth[0].bitrate = 1000Mbps
*.switch0.eth[1].bitrate = 2400Mbps
*.switch0.eth[2].bitrate = 2100Mbps
*.switch0.eth[3].bitrate = 1700Mbps
*.switch0.eth[4].bitrate = 1300Mbps
*.switch0.eth[5].bitrate = 1800Mbps
*.switch0.eth[6].bitrate = 1900Mbps
*.switch0.eth[7].bitrate = 2100Mbps
*.switch0.eth[8].bitrate = 1300Mbps
*.host1.eth[0].bitrate = 1000Mbps
*.switch1.eth[0].bitrate = 1000Mbps
*.switch1.eth[1].bitrate = 1700Mbps
*.switch1.eth[2].bitrate = 2000Mbps
*.switch1.eth[3].bitrate = 2000Mbps
*.switch1.eth[4].bitrate = 1700Mbps
*.switch1.eth[5].bitrate = 2400Mbps
*.switch1.eth[6].bitrate = 2200Mbps
*.switch1.eth[7].bitrate = 1500Mbps
*.switch1.eth[8].bitrate = 2200Mbps
*.switch1.eth[9].bitrate = 1300Mbps
*.host2.eth[0].bitrate = 1000Mbps
*.switch2.eth[0].bitrate = 1000Mbps
*.switch2.eth[1].bitrate = 1300Mbps
*.switch2.eth[2].bitrate = 1400Mbps
*.switch2.eth[3].bitrate = 1900Mbps
*.switch2.eth[4].bitrate = 1700Mbps
*.switch2.eth[5].bitrate = 2200Mbps
*.switch2.eth[6].bitrate = 1200Mbps
*.switch2.eth[7].bitrate = 2300Mbps
*.switch2.eth[8].bitrate = 1700Mbps
*.switch2.eth[9].bitrate = 1400Mbps
*.host3.eth[0].bitrate = 1000Mbps
*.switch3.eth[0].bitrate = 1000Mbps
*.switch3.eth[1].bitrate = 2000Mbps
*.switch3.eth[2].bitrate = 1400Mbps
*.switch3.eth[3].bitrate = 2000Mbps
*.switch3.eth[4].bitrate = 2300Mbps
*.switch3.eth[5].bitrate = 2400Mbps
*.switch3.eth[6].bitrate = 2100Mbps
*.switch3.eth[7].bitrate = 2300Mbps
*.host4.eth[0].bitrate = 1000Mbps
*.switch4.eth[0].bitrate = 1000Mbps
*.switch4.eth[1].bitrate = 2000Mbps
*.switch4.eth[2].bitrate = 1800Mbps
*.switch4.eth[3].bitrate = 1400Mbps
*.switch4.eth[4].bitrate = 2300Mbps
*.switch4.eth[5].bitrate = 1300Mbps
*.switch4.eth[6].bitrate = 2200Mbps
*.switch4.eth[7].bitrate = 2300Mbps
*.switch4.eth[8].bitrate = 1500Mbps
*.switch4.eth[9].bitrate = 1900Mbps
*.switch4.eth[10].bitrate = 1400Mbps
*.switch4.eth[11].bitrate = 2000Mbps
*.switch4.eth[12].bitrate = 1300Mbps
*.switch4.eth[13].bitrate = 1600Mbps
*.switch4.eth[14].bitrate = 1900Mbps
*.host5.eth[0].bitrate = 1000Mbps
*.switch5.eth[0].bitrate = 1000Mbps
*.switch5.eth[1].bitrate = 2400Mbps
*.switch5.eth[2].bitrate = 1800Mbps
*.switch5.eth[3].bitrate = 2200Mbps
*.switch5.eth[4].bitrate = 1900Mbps
*.switch5.eth[5].bitrate = 1900Mbps
*.switch5.eth[6].bitrate = 1200Mbps
*.switch5.eth[7].bitrate = 1300Mbps
*.switch5.eth[8].bitrate = 1200Mbps
*.host6.eth[0].bitrate = 1000Mbps
*.switch6.eth[0].bitrate = 1000Mbps
*.switch6.eth[1].bitrate = 2000Mbps
*.switch6.eth[2].bitrate = 1400Mbps
*.switch6.eth[3].bitrate = 1800Mbps
*.switch6.eth[4].bitrate = 1200Mbps
*.switch6.eth[5].bitrate = 2300Mbps
*.switch6.eth[6].bitrate = 1300Mbps
*.switch6.eth[7].bitrate = 1800Mbps
*.switch6.eth[8].bitrate = 2400Mbps
*.switch6.eth[9].bitrate = 2000Mbps
*.switch6.eth[10].bitrate = 2000Mbps
*.switch6.eth[11].bitrate = 2100Mbps
*.switch6.eth[12].bitrate = 1400Mbps
*.switch6.eth[13].bitrate = 2300Mbps
*.switch6.eth[14].bitrate = 1700Mbps
*.switch6.eth[15].bitrate = 1500Mbps
*.switch6.eth[16].bitrate = 1200Mbps
*.switch6.eth[17].bitrate = 2200Mbps
*.switch6.eth[18].bitrate = 1400Mbps
*.switch6.eth[19].bitrate = 1900Mbps
*.host7.eth[0].bitrate = 1000Mbps
*.switch7.eth[0].bitrate = 1000Mbps
*.switch7.eth[1].bitrate = 1700Mbps
*.switch7.eth[2].bitrate = 1400Mbps
*.switch7.eth[3].bitrate = 1800Mbps
*.switch7.eth[4].bitrate = 2400Mbps
*.switch7.eth[5].bitrate = 1400Mbps
*.switch7.eth[6].bitrate = 1500Mbps
*.switch7.eth[7].bitrate = 2000Mbps
*.switch7.eth[8].bitrate = 1400Mbps
*.switch7.eth[9].bitrate = 1200Mbps
*.switch7.eth[10].bitrate = 1200Mbps
*.switch7.eth[11].bitrate = 2300Mbps
*.switch7.eth[12].bitrate = 1600Mbps
*.switch7.eth[13].bitrate = 1400Mbps
*.switch7.eth[14].bitrate = 1400Mbps
*.host8.eth[0].bitrate = 1000Mbps
*.switch8.eth[0].bitrate = 1000Mbps
*.switch8.eth[1].bitrate = 2300Mbps
*.switch8.eth[2].bitrate = 2400Mbps
*.switch8.eth[3].bitrate = 2000Mbps
*.switch8.eth[4].bitrate = 1900Mbps
*.switch8.eth[5].bitrate = 2000Mbps
*.switch8.eth[6].bitrate = 1600Mbps
*.switch8.eth[7].bitrate = 1200Mbps
*.switch8.eth[8].bitrate = 2000Mbps
*.switch8.eth[9].bitrate = 1700Mbps
*.switch8.eth[10].bitrate = 1900Mbps
*.switch8.eth[11].bitrate = 1200Mbps
*.switch8.eth[12].bitrate = 1300Mbps
*.host9.eth[0].bitrate = 1000Mbps
*.switch9.eth[0].bitrate = 1000Mbps
*.switch9.eth[1].bitrate = 1300Mbps
*.switch9.eth[2].bitrate = 1900Mbps
*.switch9.eth[3].bitrate = 2000Mbps
*.switch9.eth[4].bitrate = 1400Mbps
*.switch9.eth[5].bitrate = 1200Mbps
*.switch9.eth[6].bitrate = 1500Mbps
*.switch9.eth[7].bitrate = 2300Mbps
*.switch9.eth[8].bitrate = 1200Mbps
*.switch9.eth[9].bitrate = 1500Mbps
*.switch9.eth[10].bitrate = 1500Mbps
*.switch9.eth[11].bitrate = 1300Mbps
*.switch9.eth[12].bitrate = 1700Mbps
*.host10.eth[0].bitrate = 1000Mbps
*.switch10.eth[0].bitrate = 1000Mbps
*.switch10.eth[1].bitrate = 1900Mbps
*.switch10.eth[2].bitrate = 1400Mbps
*.switch10.eth[3].bitrate = 2200Mbps
*.switch10.eth[4].bitrate = 2000Mbps
*.switch10.eth[5].bitrate = 1300Mbps
*.switch10.eth[6].bitrate = 1900Mbps
*.switch10.eth[7].bitrate = 1400Mbps
*.host11.eth[0].bitrate = 1000Mbps
*.switch11.eth[0].bitrate = 1000Mbps
*.switch11.eth[1].bitrate = 2100Mbps
*.switch11.eth[2].bitrate = 2400Mbps
*.switch11.eth[3].bitrate = 2100Mbps
*.switch11.eth[4].bitrate = 1200Mbps
*.switch11.eth[5].bitrate = 2000Mbps
*.switch11.eth[6].bitrate = 1500Mbps
*.switch11.eth[7].bitrate = 1900Mbps
*.switch11.eth[8].bitrate = 2100Mbps
*.switch11.eth[9].bitrate = 1700Mbps
*.switch11.eth[10].bitrate = 1600Mbps
*.switch11.eth[11].bitrate = 1200Mbps
*.switch11.eth[12].bitrate = 2200Mbps
*.switch11.eth[13].bitrate = 1400Mbps
*.switch11.eth[14].bitrate = 1300Mbps
*.switch11.eth[15].bitrate = 1300Mbps
*.host12.eth[0].bitrate = 1000Mbps
*.switch12.eth[0].bitrate = 1000Mbps
*.switch12.eth[1].bitrate = 1700Mbps
*.switch12.eth[2].bitrate = 1200Mbps
*.switch12.eth[3].bitrate = 1400Mbps
*.switch12.eth[4].bitrate = 1200Mbps
*.switch12.eth[5].bitrate = 1700Mbps
*.switch12.eth[6].bitrate = 1300Mbps
*.switch12.eth[7].bitrate = 2200Mbps
*.switch12.eth[8].bitrate = 1400Mbps
*.switch12.eth[9].bitrate = 2100Mbps
*.switch12.eth[10].bitrate = 1400Mbps
*.switch12.eth[11].bitrate = 1400Mbps
*.switch12.eth[12].bitrate = 1200Mbps
*.switch12.eth[13].bitrate = 1900Mbps
*.switch12.eth[14].bitrate = 1400Mbps
*.host13.eth[0].bitrate = 1000Mbps
*.switch13.eth[0].bitrate = 1000Mbps
*.switch13.eth[1].bitrate = 2200Mbps
*.switch13.eth[2].bitrate = 2300Mbps
*.switch13.eth[3].bitrate = 2300Mbps
*.switch13.eth[4].bitrate = 1900Mbps
*.switch13.eth[5].bitrate = 1300Mbps
*.switch13.eth[6].bitrate = 1900Mbps
*.switch13.eth[7].bitrate = 1300Mbps
*.host14.eth[0].bitrate = 1000Mbps
*.switch14.eth[0].bitrate = 1000Mbps
*.switch14.eth[1].bitrate = 1500Mbps
*.switch14.eth[2].bitrate = 1700Mbps
*.switch14.eth[3].bitrate = 2300Mbps
*.switch14.eth[4].bitrate = 1500Mbps
*.switch14.eth[5].bitrate = 1400Mbps
*.switch14.eth[6].bitrate = 1400Mbps
*.switch14.eth[7].bitrate = 2300Mbps
*.switch14.eth[8].bitrate = 1900Mbps
*.switch14.eth[9].bitrate = 1900Mbps
*.switch14.eth[10].bitrate = 1300Mbps
*.switch14.eth[11].bitrate = 1700Mbps
*.host0.numApps = 7
*.host0.app[0].typename = "UdpSinkApp"
*.host0.app[0].io.localPort = 1000
*.host0.app[1].typename = "UdpBasicApp"
*.host0.app[1].destAddresses = "host13"
*.host0.app[1].source.packetNameFormat = "%M-%m-%c"
*.host0.app[1].source.displayStringTextFormat = "sent %p pk (%l)"
*.host0.app[1].messageLength = 22B
*.host0.app[1].sendInterval = 1ms
*.host0.app[1].startTime = 7ms
*.host0.app[1].stopTime = 8ms
*.host0.app[1].display-name = "type2_10"
*.host0.app[1].destPort = 1000
*.host0.app[2].typename = "UdpBasicApp"
*.host0.app[2].destAddresses = "host13"
*.host0.app[2].source.packetNameFormat = "%M-%m-%c"
*.host0.app[2].source.displayStringTextFormat = "sent %p pk (%l)"
*.host0.app[2].messageLength = 22B
*.host0.app[2].sendInterval = 1ms
*.host0.app[2].startTime = 31ms
*.host0.app[2].stopTime = 44ms
*.host0.app[2].display-name = "type2_10"
*.host0.app[2].destPort = 1000
*.host0.app[3].typename = "UdpBasicApp"
*.host0.app[3].destAddresses = "host13"
*.host0.app[3].source.packetNameFormat = "%M-%m-%c"
*.host0.app[3].source.displayStringTextFormat = "sent %p pk (%l)"
*.host0.app[3].messageLength = 22B
*.host0.app[3].sendInterval = 1ms
*.host0.app[3].startTime = 49ms
*.host0.app[3].stopTime = 54ms
*.host0.app[3].display-name = "type2_10"
*.host0.app[3].destPort = 1000
*.host0.app[4].typename = "UdpBasicApp"
*.host0.app[4].destAddresses = "host13"
*.host0.app[4].source.packetNameFormat = "%M-%m-%c"
*.host0.app[4].source.displayStringTextFormat = "sent %p pk (%l)"
*.host0.app[4].messageLength = 22B
*.host0.app[4].sendInterval = 1ms
*.host0.app[4].startTime = 65ms
*.host0.app[4].stopTime = 85ms
*.host0.app[4].display-name = "type2_10"
*.host0.app[4].destPort = 1000
*.host0.app[5].typename = "UdpBasicApp"
*.host0.app[5].destAddresses = "host13"
*.host0.app[5].source.packetNameFormat = "%M-%m-%c"
*.host0.app[5].source.displayStringTextFormat = "sent %p pk (%l)"
*.host0.app[5].messageLength = 22B
*.host0.app[5].sendInterval = 1ms
*.host0.app[5].startTime = 88ms
*.host0.app[5].stopTime = 89ms
*.host0.app[5].display-name = "type2_10"
*.host0.app[5].destPort = 1000
*.host0.app[6].typename = "UdpBasicApp"
*.host0.app[6].destAddresses = "host13"
*.host0.app[6].source.packetNameFormat = "%M-%m-%c"
*.host0.app[6].source.displayStringTextFormat = "sent %p pk (%l)"
*.host0.app[6].messageLength = 22B
*.host0.app[6].sendInterval = 1ms
*.host0.app[6].startTime = 99ms
*.host0.app[6].stopTime = 100ms
*.host0.app[6].display-name = "type2_10"
*.host0.app[6].destPort = 1000
*.host1.numApps = 7
*.host1.app[0].typename = "UdpBasicApp"
*.host1.app[0].destAddresses = "host12"
*.host1.app[0].source.packetNameFormat = "%M-%m-%c"
*.host1.app[0].source.displayStringTextFormat = "sent %p pk (%l)"
*.host1.app[0].messageLength = 12B
*.host1.app[0].sendInterval = 1ms
*.host1.app[0].startTime = 2ms
*.host1.app[0].stopTime = 6ms
*.host1.app[0].display-name = "type2_2"
*.host1.app[0].destPort = 1000
*.host1.app[1].typename = "UdpBasicApp"
*.host1.app[1].destAddresses = "host12"
*.host1.app[1].source.packetNameFormat = "%M-%m-%c"
*.host1.app[1].source.displayStringTextFormat = "sent %p pk (%l)"
*.host1.app[1].messageLength = 12B
*.host1.app[1].sendInterval = 1ms
*.host1.app[1].startTime = 11ms
*.host1.app[1].stopTime = 17ms
*.host1.app[1].display-name = "type2_2"
*.host1.app[1].destPort = 1000
*.host1.app[2].typename = "UdpBasicApp"
*.host1.app[2].destAddresses = "host12"
*.host1.app[2].source.packetNameFormat = "%M-%m-%c"
*.host1.app[2].source.displayStringTextFormat = "sent %p pk (%l)"
*.host1.app[2].messageLength = 12B
*.host1.app[2].sendInterval = 1ms
*.host1.app[2].startTime = 19ms
*.host1.app[2].stopTime = 39ms
*.host1.app[2].display-name = "type2_2"
*.host1.app[2].destPort = 1000
*.host1.app[3].typename = "UdpBasicApp"
*.host1.app[3].destAddresses = "host12"
*.host1.app[3].source.packetNameFormat = "%M-%m-%c"
*.host1.app[3].source.displayStringTextFormat = "sent %p pk (%l)"
*.host1.app[3].messageLength = 12B
*.host1.app[3].sendInterval = 1ms
*.host1.app[3].startTime = 40ms
*.host1.app[3].stopTime = 45ms
*.host1.app[3].display-name = "type2_2"
*.host1.app[3].destPort = 1000
*.host1.app[4].typename = "UdpBasicApp"
*.host1.app[4].destAddresses = "host12"
*.host1.app[4].source.packetNameFormat = "%M-%m-%c"
*.host1.app[4].source.displayStringTextFormat = "sent %p pk (%l)"
*.host1.app[4].messageLength = 12B
*.host1.app[4].sendInterval = 1ms
*.host1.app[4].startTime = 64ms
*.host1.app[4].stopTime = 65ms
*.host1.app[4].display-name = "type2_2"
*.host1.app[4].destPort = 1000
*.host1.app[5].typename = "UdpBasicApp"
*.host1.app[5].destAddresses = "host12"
*.host1.app[5].source.packetNameFormat = "%M-%m-%c"
*.host1.app[5].source.displayStringTextFormat = "sent %p pk (%l)"
*.host1.app[5].messageLength = 12B
*.host1.app[5].sendInterval = 1ms
*.host1.app[5].startTime = 66ms
*.host1.app[5].stopTime = 67ms
*.host1.app[5].display-name = "type2_2"
*.host1.app[5].destPort = 1000
*.host1.app[6].typename = "UdpBasicApp"
*.host1.app[6].destAddresses = "host12"
*.host1.app[6].source.packetNameFormat = "%M-%m-%c"
*.host1.app[6].source.displayStringTextFormat = "sent %p pk (%l)"
*.host1.app[6].messageLength = 12B
*.host1.app[6].sendInterval = 1ms
*.host1.app[6].startTime = 70ms
*.host1.app[6].stopTime = 77ms
*.host1.app[6].display-name = "type2_2"
*.host1.app[6].destPort = 1000
*.host2.numApps = 2
*.host2.app[0].typename = "UdpSinkApp"
*.host2.app[0].io.localPort = 1000
*.host2.app[1].typename = "UdpSinkApp"
*.host2.app[1].io.localPort = 1001
*.host3.numApps = 11
*.host3.app[0].typename = "UdpBasicApp"
*.host3.app[0].destAddresses = "host11"
*.host3.app[0].source.packetNameFormat = "%M-%m-%c"
*.host3.app[0].source.displayStringTextFormat = "sent %p pk (%l)"
*.host3.app[0].messageLength = 18B
*.host3.app[0].sendInterval = 1ms
*.host3.app[0].startTime = 24ms
*.host3.app[0].stopTime = 25ms
*.host3.app[0].display-name = "type2_6"
*.host3.app[0].destPort = 1001
*.host3.app[1].typename = "UdpBasicApp"
*.host3.app[1].destAddresses = "host11"
*.host3.app[1].source.packetNameFormat = "%M-%m-%c"
*.host3.app[1].source.displayStringTextFormat = "sent %p pk (%l)"
*.host3.app[1].messageLength = 18B
*.host3.app[1].sendInterval = 1ms
*.host3.app[1].startTime = 28ms
*.host3.app[1].stopTime = 39ms
*.host3.app[1].display-name = "type2_6"
*.host3.app[1].destPort = 1001
*.host3.app[2].typename = "UdpBasicApp"
*.host3.app[2].destAddresses = "host11"
*.host3.app[2].source.packetNameFormat = "%M-%m-%c"
*.host3.app[2].source.displayStringTextFormat = "sent %p pk (%l)"
*.host3.app[2].messageLength = 18B
*.host3.app[2].sendInterval = 1ms
*.host3.app[2].startTime = 44ms
*.host3.app[2].stopTime = 48ms
*.host3.app[2].display-name = "type2_6"
*.host3.app[2].destPort = 1001
*.host3.app[3].typename = "UdpBasicApp"
*.host3.app[3].destAddresses = "host11"
*.host3.app[3].source.packetNameFormat = "%M-%m-%c"
*.host3.app[3].source.displayStringTextFormat = "sent %p pk (%l)"
*.host3.app[3].messageLength = 18B
*.host3.app[3].sendInterval = 1ms
*.host3.app[3].startTime = 49ms
*.host3.app[3].stopTime = 57ms
*.host3.app[3].display-name = "type2_6"
*.host3.app[3].destPort = 1001
*.host3.app[4].typename = "UdpBasicApp"
*.host3.app[4].destAddresses = "host11"
*.host3.app[4].source.packetNameFormat = "%M-%m-%c"
*.host3.app[4].source.displayStringTextFormat = "sent %p pk (%l)"
*.host3.app[4].messageLength = 18B
*.host3.app[4].sendInterval = 1ms
*.host3.app[4].startTime = 60ms
*.host3.app[4].stopTime = 68ms
*.host3.app[4].display-name = "type2_6"
*.host3.app[4].destPort = 1001
*.host3.app[5].typename = "UdpBasicApp"
*.host3.app[5].destAddresses = "host11"
*.host3.app[5].source.packetNameFormat = "%M-%m-%c"
*.host3.app[5].source.displayStringTextFormat = "sent %p pk (%l)"
*.host3.app[5].messageLength = 18B
*.host3.app[5].sendInterval = 1ms
*.host3.app[5].startTime = 82ms
*.host3.app[5].stopTime = 87ms
*.host3.app[5].display-name = "type2_6"
*.host3.app[5].destPort = 1001
*.host3.app[6].typename = "UdpBasicApp"
*.host3.app[6].destAddresses = "host11"
*.host3.app[6].source.packetNameFormat = "%M-%m-%c"
*.host3.app[6].source.displayStringTextFormat = "sent %p pk (%l)"
*.host3.app[6].messageLength = 18B
*.host3.app[6].sendInterval = 1ms
*.host3.app[6].startTime = 88ms
*.host3.app[6].stopTime = 94ms
*.host3.app[6].display-name = "type2_6"
*.host3.app[6].destPort = 1001
*.host3.app[7].typename = "UdpBasicApp"
*.host3.app[7].destAddresses = "host11"
*.host3.app[7].source.packetNameFormat = "%M-%m-%c"
*.host3.app[7].source.displayStringTextFormat = "sent %p pk (%l)"
*.host3.app[7].messageLength = 18B
*.host3.app[7].sendInterval = 1ms
*.host3.app[7].startTime = 99ms
*.host3.app[7].stopTime = 100ms
*.host3.app[7].display-name = "type2_6"
*.host3.app[7].destPort = 1001
*.host3.app[8].typename = "UdpBasicApp"
*.host3.app[8].destAddresses = "host10"
*.host3.app[8].source.packetNameFormat = "%M-%m-%c"
*.host3.app[8].source.displayStringTextFormat = "sent %p pk (%l)"
*.host3.app[8].messageLength = 18B
*.host3.app[8].sendInterval = 1ms
*.host3.app[8].startTime = 0ms
*.host3.app[8].stopTime = 8ms
*.host3.app[8].display-name = "type2_8"
*.host3.app[8].destPort = 1000
*.host3.app[9].typename = "UdpBasicApp"
*.host3.app[9].destAddresses = "host10"
*.host3.app[9].source.packetNameFormat = "%M-%m-%c"
*.host3.app[9].source.displayStringTextFormat = "sent %p pk (%l)"
*.host3.app[9].messageLength = 18B
*.host3.app[9].sendInterval = 1ms
*.host3.app[9].startTime = 48ms
*.host3.app[9].stopTime = 56ms
*.host3.app[9].display-name = "type2_8"
*.host3.app[9].destPort = 1000
*.host3.app[10].typename = "UdpBasicApp"
*.host3.app[10].destAddresses = "host10"
*.host3.app[10].source.packetNameFormat = "%M-%m-%c"
*.host3.app[10].source.displayStringTextFormat = "sent %p pk (%l)"
*.host3.app[10].messageLength = 18B
*.host3.app[10].sendInterval = 1ms
*.host3.app[10].startTime = 84ms
*.host3.app[10].stopTime = 85ms
*.host3.app[10].display-name = "type2_8"
*.host3.app[10].destPort = 1000
*.host4.numApps = 2
*.host4.app[0].typename = "UdpSourceApp"
*.host4.app[0].io.destAddress = "host5"
*.host4.app[0].source.packetNameFormat = "%M-%m-%c"
*.host4.app[0].source.displayStringTextFormat = "sent %p pk (%l)"
*.host4.app[0].source.packetLength = 23B
*.host4.app[0].source.productionInterval = 1ms
*.host4.app[0].display-name = "type1_0"
*.host4.app[0].io.destPort = 1000
*.host4.app[1].typename = "UdpSinkApp"
*.host4.app[1].io.localPort = 1000
*.host5.numApps = 3
*.host5.app[0].typename = "UdpSinkApp"
*.host5.app[0].io.localPort = 1000
*.host5.app[1].typename = "UdpSourceApp"
*.host5.app[1].io.destAddress = "host8"
*.host5.app[1].source.packetNameFormat = "%M-%m-%c"
*.host5.app[1].source.displayStringTextFormat = "sent %p pk (%l)"
*.host5.app[1].source.packetLength = 21B
*.host5.app[1].source.productionInterval = 1ms
*.host5.app[1].display-name = "type1_1"
*.host5.app[1].io.destPort = 1000
*.host5.app[2].typename = "UdpSinkApp"
*.host5.app[2].io.localPort = 1001
*.host6.numApps = 20
*.host6.app[0].typename = "UdpSourceApp"
*.host6.app[0].io.destAddress = "host8"
*.host6.app[0].source.packetNameFormat = "%M-%m-%c"
*.host6.app[0].source.displayStringTextFormat = "sent %p pk (%l)"
*.host6.app[0].source.packetLength = 12B
*.host6.app[0].source.productionInterval = 1ms
*.host6.app[0].display-name = "type1_2"
*.host6.app[0].io.destPort = 1001
*.host6.app[1].typename = "UdpBasicApp"
*.host6.app[1].destAddresses = "host2"
*.host6.app[1].source.packetNameFormat = "%M-%m-%c"
*.host6.app[1].source.displayStringTextFormat = "sent %p pk (%l)"
*.host6.app[1].messageLength = 22B
*.host6.app[1].sendInterval = 1ms
*.host6.app[1].startTime = 5ms
*.host6.app[1].stopTime = 12ms
*.host6.app[1].display-name = "type2_4"
*.host6.app[1].destPort = 1000
*.host6.app[2].typename = "UdpBasicApp"
*.host6.app[2].destAddresses = "host2"
*.host6.app[2].source.packetNameFormat = "%M-%m-%c"
*.host6.app[2].source.displayStringTextFormat = "sent %p pk (%l)"
*.host6.app[2].messageLength = 22B
*.host6.app[2].sendInterval = 1ms
*.host6.app[2].startTime = 19ms
*.host6.app[2].stopTime = 21ms
*.host6.app[2].display-name = "type2_4"
*.host6.app[2].destPort = 1000
*.host6.app[3].typename = "UdpBasicApp"
*.host6.app[3].destAddresses = "host2"
*.host6.app[3].source.packetNameFormat = "%M-%m-%c"
*.host6.app[3].source.displayStringTextFormat = "sent %p pk (%l)"
*.host6.app[3].messageLength = 22B
*.host6.app[3].sendInterval = 1ms
*.host6.app[3].startTime = 45ms
*.host6.app[3].stopTime = 51ms
*.host6.app[3].display-name = "type2_4"
*.host6.app[3].destPort = 1000
*.host6.app[4].typename = "UdpBasicApp"
*.host6.app[4].destAddresses = "host2"
*.host6.app[4].source.packetNameFormat = "%M-%m-%c"
*.host6.app[4].source.displayStringTextFormat = "sent %p pk (%l)"
*.host6.app[4].messageLength = 22B
*.host6.app[4].sendInterval = 1ms
*.host6.app[4].startTime = 63ms
*.host6.app[4].stopTime = 71ms
*.host6.app[4].display-name = "type2_4"
*.host6.app[4].destPort = 1000
*.host6.app[5].typename = "UdpBasicApp"
*.host6.app[5].destAddresses = "host2"
*.host6.app[5].source.packetNameFormat = "%M-%m-%c"
*.host6.app[5].source.displayStringTextFormat = "sent %p pk (%l)"
*.host6.app[5].messageLength = 22B
*.host6.app[5].sendInterval = 1ms
*.host6.app[5].startTime = 73ms
*.host6.app[5].stopTime = 85ms
*.host6.app[5].display-name = "type2_4"
*.host6.app[5].destPort = 1000
*.host6.app[6].typename = "UdpBasicApp"
*.host6.app[6].destAddresses = "host2"
*.host6.app[6].source.packetNameFormat = "%M-%m-%c"
*.host6.app[6].source.displayStringTextFormat = "sent %p pk (%l)"
*.host6.app[6].messageLength = 22B
*.host6.app[6].sendInterval = 1ms
*.host6.app[6].startTime = 87ms
*.host6.app[6].stopTime = 92ms
*.host6.app[6].display-name = "type2_4"
*.host6.app[6].destPort = 1000
*.host6.app[7].typename = "UdpBasicApp"
*.host6.app[7].destAddresses = "host2"
*.host6.app[7].source.packetNameFormat = "%M-%m-%c"
*.host6.app[7].source.displayStringTextFormat = "sent %p pk (%l)"
*.host6.app[7].messageLength = 22B
*.host6.app[7].sendInterval = 1ms
*.host6.app[7].startTime = 95ms
*.host6.app[7].stopTime = 100ms
*.host6.app[7].display-name = "type2_4"
*.host6.app[7].destPort = 1000
*.host6.app[8].typename = "UdpBasicApp"
*.host6.app[8].destAddresses = "host2"
*.host6.app[8].source.packetNameFormat = "%M-%m-%c"
*.host6.app[8].source.displayStringTextFormat = "sent %p pk (%l)"
*.host6.app[8].messageLength = 22B
*.host6.app[8].sendInterval = 1ms
*.host6.app[8].startTime = 0ms
*.host6.app[8].stopTime = 1ms
*.host6.app[8].display-name = "type2_9"
*.host6.app[8].destPort = 1001
*.host6.app[9].typename = "UdpBasicApp"
*.host6.app[9].destAddresses = "host2"
*.host6.app[9].source.packetNameFormat = "%M-%m-%c"
*.host6.app[9].source.displayStringTextFormat = "sent %p pk (%l)"
*.host6.app[9].messageLength = 22B
*.host6.app[9].sendInterval = 1ms
*.host6.app[9].startTime = 4ms
*.host6.app[9].stopTime = 12ms
*.host6.app[9].display-name = "type2_9"
*.host6.app[9].destPort = 1001
*.host6.app[10].typename = "UdpBasicApp"
*.host6.app[10].destAddresses = "host2"
*.host6.app[10].source.packetNameFormat = "%M-%m-%c"
*.host6.app[10].source.displayStringTextFormat = "sent %p pk (%l)"
*.host6.app[10].messageLength = 22B
*.host6.app[10].sendInterval = 1ms
*.host6.app[10].startTime = 20ms
*.host6.app[10].stopTime = 23ms
*.host6.app[10].display-name = "type2_9"
*.host6.app[10].destPort = 1001
*.host6.app[11].typename = "UdpBasicApp"
*.host6.app[11].destAddresses = "host2"
*.host6.app[11].source.packetNameFormat = "%M-%m-%c"
*.host6.app[11].source.displayStringTextFormat = "sent %p pk (%l)"
*.host6.app[11].messageLength = 22B
*.host6.app[11].sendInterval = 1ms
*.host6.app[11].startTime = 24ms
*.host6.app[11].stopTime = 25ms
*.host6.app[11].display-name = "type2_9"
*.host6.app[11].destPort = 1001
*.host6.app[12].typename = "UdpBasicApp"
*.host6.app[12].destAddresses = "host2"
*.host6.app[12].source.packetNameFormat = "%M-%m-%c"
*.host6.app[12].source.displayStringTextFormat = "sent %p pk (%l)"
*.host6.app[12].messageLength = 22B
*.host6.app[12].sendInterval = 1ms
*.host6.app[12].startTime = 36ms
*.host6.app[12].stopTime = 46ms
*.host6.app[12].display-name = "type2_9"
*.host6.app[12].destPort = 1001
*.host6.app[13].typename = "UdpBasicApp"
*.host6.app[13].destAddresses = "host2"
*.host6.app[13].source.packetNameFormat = "%M-%m-%c"
*.host6.app[13].source.displayStringTextFormat = "sent %p pk (%l)"
*.host6.app[13].messageLength = 22B
*.host6.app[13].sendInterval = 1ms
*.host6.app[13].startTime = 47ms
*.host6.app[13].stopTime = 63ms
*.host6.app[13].display-name = "type2_9"
*.host6.app[13].destPort = 1001
*.host6.app[14].typename = "UdpBasicApp"
*.host6.app[14].destAddresses = "host2"
*.host6.app[14].source.packetNameFormat = "%M-%m-%c"
*.host6.app[14].source.displayStringTextFormat = "sent %p pk (%l)"
*.host6.app[14].messageLength = 22B
*.host6.app[14].sendInterval = 1ms
*.host6.app[14].startTime = 65ms
*.host6.app[14].stopTime = 70ms
*.host6.app[14].display-name = "type2_9"
*.host6.app[14].destPort = 1001
*.host6.app[15].typename = "UdpBasicApp"
*.host6.app[15].destAddresses = "host2"
*.host6.app[15].source.packetNameFormat = "%M-%m-%c"
*.host6.app[15].source.displayStringTextFormat = "sent %p pk (%l)"
*.host6.app[15].messageLength = 22B
*.host6.app[15].sendInterval = 1ms
*.host6.app[15].startTime = 76ms
*.host6.app[15].stopTime = 100ms
*.host6.app[15].display-name = "type2_9"
*.host6.app[15].destPort = 1001
*.host6.app[16].typename = "UdpBasicApp"
*.host6.app[16].destAddresses = "host11"
*.host6.app[16].source.packetNameFormat = "%M-%m-%c"
*.host6.app[16].source.displayStringTextFormat = "sent %p pk (%l)"
*.host6.app[16].messageLength = 12B
*.host6.app[16].sendInterval = 1ms
*.host6.app[16].startTime = 5ms
*.host6.app[16].stopTime = 21ms
*.host6.app[16].display-name = "type2_11"
*.host6.app[16].destPort = 1002
*.host6.app[17].typename = "UdpBasicApp"
*.host6.app[17].destAddresses = "host11"
*.host6.app[17].source.packetNameFormat = "%M-%m-%c"
*.host6.app[17].source.displayStringTextFormat = "sent %p pk (%l)"
*.host6.app[17].messageLength = 12B
*.host6.app[17].sendInterval = 1ms
*.host6.app[17].startTime = 41ms
*.host6.app[17].stopTime = 49ms
*.host6.app[17].display-name = "type2_11"
*.host6.app[17].destPort = 1002
*.host6.app[18].typename = "UdpBasicApp"
*.host6.app[18].destAddresses = "host11"
*.host6.app[18].source.packetNameFormat = "%M-%m-%c"
*.host6.app[18].source.displayStringTextFormat = "sent %p pk (%l)"
*.host6.app[18].messageLength = 12B
*.host6.app[18].sendInterval = 1ms
*.host6.app[18].startTime = 62ms
*.host6.app[18].stopTime = 87ms
*.host6.app[18].display-name = "type2_11"
*.host6.app[18].destPort = 1002
*.host6.app[19].typename = "UdpBasicApp"
*.host6.app[19].destAddresses = "host11"
*.host6.app[19].source.packetNameFormat = "%M-%m-%c"
*.host6.app[19].source.displayStringTextFormat = "sent %p pk (%l)"
*.host6.app[19].messageLength = 12B
*.host6.app[19].sendInterval = 1ms
*.host6.app[19].startTime = 96ms
*.host6.app[19].stopTime = 97ms
*.host6.app[19].display-name = "type2_11"
*.host6.app[19].destPort = 1002
*.host7.numApps = 1
*.host7.app[0].typename = "UdpSinkApp"
*.host7.app[0].io.localPort = 1000
*.host8.numApps = 2
*.host8.app[0].typename = "UdpSinkApp"
*.host8.app[0].io.localPort = 1000
*.host8.app[1].typename = "UdpSinkApp"
*.host8.app[1].io.localPort = 1001
*.host9.numApps = 8
*.host9.app[0].typename = "UdpBasicApp"
*.host9.app[0].destAddresses = "host0"
*.host9.app[0].source.packetNameFormat = "%M-%m-%c"
*.host9.app[0].source.displayStringTextFormat = "sent %p pk (%l)"
*.host9.app[0].messageLength = 20B
*.host9.app[0].sendInterval = 1ms
*.host9.app[0].startTime = 14ms
*.host9.app[0].stopTime = 39ms
*.host9.app[0].display-name = "type2_0"
*.host9.app[0].destPort = 1000
*.host9.app[1].typename = "UdpBasicApp"
*.host9.app[1].destAddresses = "host0"
*.host9.app[1].source.packetNameFormat = "%M-%m-%c"
*.host9.app[1].source.displayStringTextFormat = "sent %p pk (%l)"
*.host9.app[1].messageLength = 20B
*.host9.app[1].sendInterval = 1ms
*.host9.app[1].startTime = 41ms
*.host9.app[1].stopTime = 51ms
*.host9.app[1].display-name = "type2_0"
*.host9.app[1].destPort = 1000
*.host9.app[2].typename = "UdpBasicApp"
*.host9.app[2].destAddresses = "host0"
*.host9.app[2].source.packetNameFormat = "%M-%m-%c"
*.host9.app[2].source.displayStringTextFormat = "sent %p pk (%l)"
*.host9.app[2].messageLength = 20B
*.host9.app[2].sendInterval = 1ms
*.host9.app[2].startTime = 54ms
*.host9.app[2].stopTime = 56ms
*.host9.app[2].display-name = "type2_0"
*.host9.app[2].destPort = 1000
*.host9.app[3].typename = "UdpBasicApp"
*.host9.app[3].destAddresses = "host0"
*.host9.app[3].source.packetNameFormat = "%M-%m-%c"
*.host9.app[3].source.displayStringTextFormat = "sent %p pk (%l)"
*.host9.app[3].messageLength = 20B
*.host9.app[3].sendInterval = 1ms
*.host9.app[3].startTime = 58ms
*.host9.app[3].stopTime = 64ms
*.host9.app[3].display-name = "type2_0"
*.host9.app[3].destPort = 1000
*.host9.app[4].typename = "UdpBasicApp"
*.host9.app[4].destAddresses = "host0"
*.host9.app[4].source.packetNameFormat = "%M-%m-%c"
*.host9.app[4].source.displayStringTextFormat = "sent %p pk (%l)"
*.host9.app[4].messageLength = 20B
*.host9.app[4].sendInterval = 1ms
*.host9.app[4].startTime = 70ms
*.host9.app[4].stopTime = 74ms
*.host9.app[4].display-name = "type2_0"
*.host9.app[4].destPort = 1000
*.host9.app[5].typename = "UdpBasicApp"
*.host9.app[5].destAddresses = "host0"
*.host9.app[5].source.packetNameFormat = "%M-%m-%c"
*.host9.app[5].source.displayStringTextFormat = "sent %p pk (%l)"
*.host9.app[5].messageLength = 20B
*.host9.app[5].sendInterval = 1ms
*.host9.app[5].startTime = 78ms
*.host9.app[5].stopTime = 80ms
*.host9.app[5].display-name = "type2_0"
*.host9.app[5].destPort = 1000
*.host9.app[6].typename = "UdpBasicApp"
*.host9.app[6].destAddresses = "host0"
*.host9.app[6].source.packetNameFormat = "%M-%m-%c"
*.host9.app[6].source.displayStringTextFormat = "sent %p pk (%l)"
*.host9.app[6].messageLength = 20B
*.host9.app[6].sendInterval = 1ms
*.host9.app[6].startTime = 85ms
*.host9.app[6].stopTime = 98ms
*.host9.app[6].display-name = "type2_0"
*.host9.app[6].destPort = 1000
*.host9.app[7].typename = "UdpBasicApp"
*.host9.app[7].destAddresses = "host0"
*.host9.app[7].source.packetNameFormat = "%M-%m-%c"
*.host9.app[7].source.displayStringTextFormat = "sent %p pk (%l)"
*.host9.app[7].messageLength = 20B
*.host9.app[7].sendInterval = 1ms
*.host9.app[7].startTime = 99ms
*.host9.app[7].stopTime = 100ms
*.host9.app[7].display-name = "type2_0"
*.host9.app[7].destPort = 1000
*.host10.numApps = 1