[General]
network = TSN_multipath
sim-time-limit = 10ms
*.macForwardingTableConfigurator.typename = ""
*.*.hasStreamRedundancy = true
*.*.bridging.streamRelay.typename = "StreamRelayLayer"
*.*.bridging.streamCoder.typename = "StreamCoderLayer"
*.streamRedundancyConfigurator.typename = "StreamRedundancyConfigurator"
*.host0.eth[0].bitrate = 1000Mbps
*.switch0.eth[0].bitrate = 1000Mbps
*.switch0.eth[1].bitrate = 1200Mbps
*.switch0.eth[2].bitrate = 1300Mbps
*.switch0.eth[3].bitrate = 1200Mbps
*.switch0.eth[4].bitrate = 1200Mbps
*.switch0.eth[5].bitrate = 1400Mbps
*.switch0.eth[6].bitrate = 2100Mbps
*.switch0.eth[7].bitrate = 1300Mbps
*.host1.eth[0].bitrate = 1000Mbps
*.switch1.eth[0].bitrate = 1000Mbps
*.switch1.eth[1].bitrate = 1200Mbps
*.switch1.eth[2].bitrate = 1600Mbps
*.switch1.eth[3].bitrate = 2400Mbps
*.switch1.eth[4].bitrate = 2300Mbps
*.switch1.eth[5].bitrate = 1400Mbps
*.switch1.eth[6].bitrate = 2000Mbps
*.switch1.eth[7].bitrate = 2100Mbps
*.switch1.eth[8].bitrate = 1300Mbps
*.host2.eth[0].bitrate = 1000Mbps
*.switch2.eth[0].bitrate = 1000Mbps
*.switch2.eth[1].bitrate = 1600Mbps
*.switch2.eth[2].bitrate = 2300Mbps
*.switch2.eth[3].bitrate = 1200Mbps
*.host3.eth[0].bitrate = 1000Mbps
*.switch3.eth[0].bitrate = 1000Mbps
*.switch3.eth[1].bitrate = 1400Mbps
*.switch3.eth[2].bitrate = 1200Mbps
*.switch3.eth[3].bitrate = 1700Mbps
*.switch3.eth[4].bitrate = 2100Mbps
*.switch3.eth[5].bitrate = 2200Mbps
*.switch3.eth[6].bitrate = 1300Mbps
*.switch3.eth[7].bitrate = 1800Mbps
*.switch3.eth[8].bitrate = 2200Mbps
*.switch3.eth[9].bitrate = 2300Mbps
*.host4.eth[0].bitrate = 1000Mbps
*.switch4.eth[0].bitrate = 1000Mbps
*.switch4.eth[1].bitrate = 1800Mbps
*.switch4.eth[2].bitrate = 1600Mbps
*.host5.eth[0].bitrate = 1000Mbps
*.switch5.eth[0].bitrate = 1000Mbps
*.switch5.eth[1].bitrate = 1300Mbps
*.switch5.eth[2].bitrate = 1700Mbps
*.switch5.eth[3].bitrate = 2100Mbps
*.switch5.eth[4].bitrate = 2100Mbps
*.switch5.eth[5].bitrate = 1500Mbps
*.switch5.eth[6].bitrate = 1300Mbps
*.switch5.eth[7].bitrate = 1200Mbps
*.host6.eth[0].bitrate = 1000Mbps
*.switch6.eth[0].bitrate = 1000Mbps
*.switch6.eth[1].bitrate = 2400Mbps
*.switch6.eth[2].bitrate = 2300Mbps
*.switch6.eth[3].bitrate = 2100Mbps
*.switch6.eth[4].bitrate = 2000Mbps
*.switch6.eth[5].bitrate = 2200Mbps
*.switch6.eth[6].bitrate = 1600Mbps
*.switch6.eth[7].bitrate = 1600Mbps
*.switch6.eth[8].bitrate = 1300Mbps
*.switch6.eth[9].bitrate = 1900Mbps
*.switch6.eth[10].bitrate = 1200Mbps
*.switch6.eth[11].bitrate = 1400Mbps
*.host7.eth[0].bitrate = 1000Mbps
*.switch7.eth[0].bitrate = 1000Mbps
*.switch7.eth[1].bitrate = 1200Mbps
*.switch7.eth[2].bitrate = 2100Mbps
*.switch7.eth[3].bitrate = 1500Mbps
*.switch7.eth[4].bitrate = 1300Mbps
*.switch7.eth[5].bitrate = 2300Mbps
*.switch7.eth[6].bitrate = 1900Mbps
*.switch7.eth[7].bitrate = 2000Mbps
*.switch7.eth[8].bitrate = 1400Mbps
*.host8.eth[0].bitrate = 1000Mbps
*.switch8.eth[0].bitrate = 1000Mbps
*.switch8.eth[1].bitrate = 1200Mbps
*.switch8.eth[2].bitrate = 2300Mbps
*.switch8.eth[3].bitrate = 2200Mbps
*.switch8.eth[4].bitrate = 1600Mbps
*.switch8.eth[5].bitrate = 2100Mbps
*.switch8.eth[6].bitrate = 1300Mbps
*.switch8.eth[7].bitrate = 1200Mbps
*.switch8.eth[8].bitrate = 2000Mbps
*.host9.eth[0].bitrate = 1000Mbps
*.switch9.eth[0].bitrate = 1000Mbps
*.switch9.eth[1].bitrate = 1400Mbps
*.switch9.eth[2].bitrate = 1300Mbps
*.switch9.eth[3].bitrate = 1300Mbps
*.switch9.eth[4].bitrate = 2000Mbps
*.switch9.eth[5].bitrate = 1300Mbps
*.switch9.eth[6].bitrate = 1200Mbps
*.switch9.eth[7].bitrate = 1400Mbps
*.switch9.eth[8].bitrate = 1400Mbps
*.switch9.eth[9].bitrate = 2000Mbps
*.host0.numApps = 13
*.host0.app[0].typename = "UdpSinkApp"
*.host0.app[0].io.localPort = 1000
*.host0.app[1].typename = "UdpSourceApp"
*.host0.app[1].io.destAddress = "host5"
*.host0.app[1].source.packetNameFormat = "%M-%m-%c"
*.host0.app[1].source.displayStringTextFormat = "sent %p pk (%l)"
*.host0.app[1].source.packetLength = 12B
*.host0.app[1].source.productionInterval = 1ms
*.host0.app[1].display-name = "type1_6"
*.host0.app[1].io.destPort = 1000
*.host0.app[2].typename = "UdpBasicApp"
*.host0.app[2].destAddresses = "host1"
*.host0.app[2].source.packetNameFormat = "%M-%m-%c"
*.host0.app[2].source.displayStringTextFormat = "sent %p pk (%l)"
*.host0.app[2].messageLength = 24B
*.host0.app[2].sendInterval = 1ms
*.host0.app[2].startTime = 400us
*.host0.app[2].stopTime = 700us
*.host0.app[2].display-name = "type2_2"
*.host0.app[2].destPort = 1000
*.host0.app[3].typename = "UdpBasicApp"
*.host0.app[3].destAddresses = "host1"
*.host0.app[3].source.packetNameFormat = "%M-%m-%c"
*.host0.app[3].source.displayStringTextFormat = "sent %p pk (%l)"
*.host0.app[3].messageLength = 24B
*.host0.app[3].sendInterval = 1ms
*.host0.app[3].startTime = 2200us
*.host0.app[3].stopTime = 2500us
*.host0.app[3].display-name = "type2_2"
*.host0.app[3].destPort = 1000
*.host0.app[4].typename = "UdpBasicApp"
*.host0.app[4].destAddresses = "host1"
*.host0.app[4].source.packetNameFormat = "%M-%m-%c"
*.host0.app[4].source.displayStringTextFormat = "sent %p pk (%l)"
*.host0.app[4].messageLength = 24B
*.host0.app[4].sendInterval = 1ms
*.host0.app[4].startTime = 3600us
*.host0.app[4].stopTime = 3700us
*.host0.app[4].display-name = "type2_2"
*.host0.app[4].destPort = 1000
*.host0.app[5].typename = "UdpBasicApp"
*.host0.app[5].destAddresses = "host1"
*.host0.app[5].source.packetNameFormat = "%M-%m-%c"
*.host0.app[5].source.displayStringTextFormat = "sent %p pk (%l)"
*.host0.app[5].messageLength = 24B
*.host0.app[5].sendInterval = 1ms
*.host0.app[5].startTime = 5000us
*.host0.app[5].stopTime = 6100us
*.host0.app[5].display-name = "type2_2"
*.host0.app[5].destPort = 1000
*.host0.app[6].typename = "UdpBasicApp"
*.host0.app[6].destAddresses = "host1"
*.host0.app[6].source.packetNameFormat = "%M-%m-%c"
*.host0.app[6].source.displayStringTextFormat = "sent %p pk (%l)"
*.host0.app[6].messageLength = 24B
*.host0.app[6].sendInterval = 1ms
*.host0.app[6].startTime = 6600us
*.host0.app[6].stopTime = 7900us
*.host0.app[6].display-name = "type2_2"
*.host0.app[6].destPort = 1000
*.host0.app[7].typename = "UdpBasicApp"
*.host0.app[7].destAddresses = "host1"
*.host0.app[7].source.packetNameFormat = "%M-%m-%c"
*.host0.app[7].source.displayStringTextFormat = "sent %p pk (%l)"
*.host0.app[7].messageLength = 24B
*.host0.app[7].sendInterval = 1ms
*.host0.app[7].startTime = 9000us
*.host0.app[7].stopTime = 9600us
*.host0.app[7].display-name = "type2_2"
*.host0.app[7].destPort = 1000
*.host0.app[8].typename = "UdpBasicApp"
*.host0.app[8].destAddresses = "host1"
*.host0.app[8].source.packetNameFormat = "%M-%m-%c"
*.host0.app[8].source.displayStringTextFormat = "sent %p pk (%l)"
*.host0.app[8].messageLength = 24B
*.host0.app[8].sendInterval = 1ms
*.host0.app[8].startTime = 400us
*.host0.app[8].stopTime = 1500us
*.host0.app[8].display-name = "type2_4"
*.host0.app[8].destPort = 1001
*.host0.app[9].typename = "UdpBasicApp"
*.host0.app[9].destAddresses = "host1"
*.host0.app[9].source.packetNameFormat = "%M-%m-%c"
*.host0.app[9].source.displayStringTextFormat = "sent %p pk (%l)"
*.host0.app[9].messageLength = 24B
*.host0.app[9].sendInterval = 1ms
*.host0.app[9].startTime = 2000us
*.host0.app[9].stopTime = 3200us
*.host0.app[9].display-name = "type2_4"
*.host0.app[9].destPort = 1001
*.host0.app[10].typename = "UdpBasicApp"
*.host0.app[10].destAddresses = "host1"
*.host0.app[10].source.packetNameFormat = "%M-%m-%c"
*.host0.app[10].source.displayStringTextFormat = "sent %p pk (%l)"
*.host0.app[10].messageLength = 24B
*.host0.app[10].sendInterval = 1ms
*.host0.app[10].startTime = 3800us
*.host0.app[10].stopTime = 6100us
*.host0.app[10].display-name = "type2_4"
*.host0.app[10].destPort = 1001
*.host0.app[11].typename = "UdpBasicApp"
*.host0.app[11].destAddresses = "host1"
*.host0.app[11].source.packetNameFormat = "%M-%m-%c"
*.host0.app[11].source.displayStringTextFormat = "sent %p pk (%l)"
*.host0.app[11].messageLength = 24B
*.host0.app[11].sendInterval = 1ms
*.host0.app[11].startTime = 6200us
*.host0.app[11].stopTime = 9500us
*.host0.app[11].display-name = "type2_4"
*.host0.app[11].destPort = 1001
*.host0.app[12].typename = "UdpSinkApp"
*.host0.app[12].io.localPort = 1001
*.host1.numApps = 3
*.host1.app[0].typename = "UdpSourceApp"
*.host1.app[0].io.destAddress = "host8"
*.host1.app[0].source.packetNameFormat = "%M-%m-%c"
*.host1.app[0].source.displayStringTextFormat = "sent %p pk (%l)"
*.host1.app[0].source.packetLength = 21B
*.host1.app[0].source.productionInterval = 1ms
*.host1.app[0].display-name = "type1_5"
*.host1.app[0].io.destPort = 1003
*.host1.app[1].typename = "UdpSinkApp"
*.host1.app[1].io.localPort = 1000
*.host1.app[2].typename = "UdpSinkApp"
*.host1.app[2].io.localPort = 1001
*.host2.numApps = 7
*.host2.app[0].typename = "UdpSourceApp"
*.host2.app[0].io.destAddress = "host8"
*.host2.app[0].source.packetNameFormat = "%M-%m-%c"
*.host2.app[0].source.displayStringTextFormat = "sent %p pk (%l)"
*.host2.app[0].source.packetLength = 17B
*.host2.app[0].source.productionInterval = 1ms
*.host2.app[0].display-name = "type1_1"
*.host2.app[0].io.destPort = 1000
*.host2.app[1].typename = "UdpSinkApp"
*.host2.app[1].io.localPort = 1000
*.host2.app[2].typename = "UdpBasicApp"
*.host2.app[2].destAddresses = "host7"
*.host2.app[2].source.packetNameFormat = "%M-%m-%c"
*.host2.app[2].source.displayStringTextFormat = "sent %p pk (%l)"
*.host2.app[2].messageLength = 17B
*.host2.app[2].sendInterval = 1ms
*.host2.app[2].startTime = 1600us
*.host2.app[2].stopTime = 2800us
*.host2.app[2].display-name = "type2_1"
*.host2.app[2].destPort = 1001
*.host2.app[3].typename = "UdpBasicApp"
*.host2.app[3].destAddresses = "host7"
*.host2.app[3].source.packetNameFormat = "%M-%m-%c"
*.host2.app[3].source.displayStringTextFormat = "sent %p pk (%l)"
*.host2.app[3].messageLength = 17B
*.host2.app[3].sendInterval = 1ms
*.host2.app[3].startTime = 4600us
*.host2.app[3].stopTime = 5400us
*.host2.app[3].display-name = "type2_1"
*.host2.app[3].destPort = 1001
*.host2.app[4].typename = "UdpBasicApp"
*.host2.app[4].destAddresses = "host7"
*.host2.app[4].source.packetNameFormat = "%M-%m-%c"
*.host2.app[4].source.displayStringTextFormat = "sent %p pk (%l)"
*.host2.app[4].messageLength = 17B
*.host2.app[4].sendInterval = 1ms
*.host2.app[4].startTime = 5600us
*.host2.app[4].stopTime = 5900us
*.host2.app[4].display-name = "type2_1"
*.host2.app[4].destPort = 1001
*.host2.app[5].typename = "UdpBasicApp"
*.host2.app[5].destAddresses = "host7"
*.host2.app[5].source.packetNameFormat = "%M-%m-%c"
*.host2.app[5].source.displayStringTextFormat = "sent %p pk (%l)"
*.host2.app[5].messageLength = 17B
*.host2.app[5].sendInterval = 1ms
*.host2.app[5].startTime = 7100us
*.host2.app[5].stopTime = 8100us
*.host2.app[5].display-name = "type2_1"
*.host2.app[5].destPort = 1001
*.host2.app[6].typename = "UdpBasicApp"
*.host2.app[6].destAddresses = "host7"
*.host2.app[6].source.packetNameFormat = "%M-%m-%c"
*.host2.app[6].source.displayStringTextFormat = "sent %p pk (%l)"
*.host2.app[6].messageLength = 17B
*.host2.app[6].sendInterval = 1ms
*.host2.app[6].startTime = 9200us
*.host2.app[6].stopTime = 9700us
*.host2.app[6].display-name = "type2_1"
*.host2.app[6].destPort = 1001
*.host3.numApps = 2
*.host3.app[0].typename = "UdpSourceApp"
*.host3.app[0].io.destAddress = "host8"
*.host3.app[0].source.packetNameFormat = "%M-%m-%c"
*.host3.app[0].source.displayStringTextFormat = "sent %p pk (%l)"
*.host3.app[0].source.packetLength = 18B
*.host3.app[0].source.productionInterval = 1ms
*.host3.app[0].display-name = "type1_3"
*.host3.app[0].io.destPort = 1002
*.host3.app[1].typename = "UdpSinkApp"
*.host3.app[1].io.localPort = 1000
*.host4.numApps = 10
*.host4.app[0].typename = "UdpSourceApp"
*.host4.app[0].io.destAddress = "host0"
*.host4.app[0].source.packetNameFormat = "%M-%m-%c"
*.host4.app[0].source.displayStringTextFormat = "sent %p pk (%l)"
*.host4.app[0].source.packetLength = 16B
*.host4.app[0].source.productionInterval = 1ms
*.host4.app[0].display-name = "type1_0"
*.host4.app[0].io.destPort = 1000
*.host4.app[1].typename = "UdpSourceApp"
*.host4.app[1].io.destAddress = "host8"
*.host4.app[1].source.packetNameFormat = "%M-%m-%c"
*.host4.app[1].source.displayStringTextFormat = "sent %p pk (%l)"
*.host4.app[1].source.packetLength = 15B
*.host4.app[1].source.productionInterval = 1ms
*.host4.app[1].display-name = "type1_2"
*.host4.app[1].io.destPort = 1001
*.host4.app[2].typename = "UdpSinkApp"
*.host4.app[2].io.localPort = 1000
*.host4.app[3].typename = "UdpBasicApp"
*.host4.app[3].destAddresses = "host0"
*.host4.app[3].source.packetNameFormat = "%M-%m-%c"
*.host4.app[3].source.displayStringTextFormat = "sent %p pk (%l)"
*.host4.app[3].messageLength = 12B
*.host4.app[3].sendInterval = 1ms
*.host4.app[3].startTime = 200us
*.host4.app[3].stopTime = 1100us
*.host4.app[3].display-name = "type2_5"
*.host4.app[3].destPort = 1001
*.host4.app[4].typename = "UdpBasicApp"
*.host4.app[4].destAddresses = "host0"
*.host4.app[4].source.packetNameFormat = "%M-%m-%c"
*.host4.app[4].source.displayStringTextFormat = "sent %p pk (%l)"
*.host4.app[4].messageLength = 12B
*.host4.app[4].sendInterval = 1ms
*.host4.app[4].startTime = 1900us
*.host4.app[4].stopTime = 3000us
*.host4.app[4].display-name = "type2_5"
*.host4.app[4].destPort = 1001
*.host4.app[5].typename = "UdpBasicApp"
*.host4.app[5].destAddresses = "host0"
*.host4.app[5].source.packetNameFormat = "%M-%m-%c"
*.host4.app[5].source.displayStringTextFormat = "sent %p pk (%l)"
*.host4.app[5].messageLength = 12B
*.host4.app[5].sendInterval = 1ms
*.host4.app[5].startTime = 4400us
*.host4.app[5].stopTime = 5200us
*.host4.app[5].display-name = "type2_5"
*.host4.app[5].destPort = 1001
*.host4.app[6].typename = "UdpBasicApp"
*.host4.app[6].destAddresses = "host0"
*.host4.app[6].source.packetNameFormat = "%M-%m-%c"
*.host4.app[6].source.displayStringTextFormat = "sent %p pk (%l)"
*.host4.app[6].messageLength = 12B
*.host4.app[6].sendInterval = 1ms
*.host4.app[6].startTime = 6300us
*.host4.app[6].stopTime = 6600us
*.host4.app[6].display-name = "type2_5"
*.host4.app[6].destPort = 1001
*.host4.app[7].typename = "UdpBasicApp"
*.host4.app[7].destAddresses = "host0"
*.host4.app[7].source.packetNameFormat = "%M-%m-%c"
*.host4.app[7].source.displayStringTextFormat = "sent %p pk (%l)"
*.host4.app[7].messageLength = 12B
*.host4.app[7].sendInterval = 1ms
*.host4.app[7].startTime = 7000us
*.host4.app[7].stopTime = 7200us
*.host4.app[7].display-name = "type2_5"
*.host4.app[7].destPort = 1001
*.host4.app[8].typename = "UdpBasicApp"
*.host4.app[8].destAddresses = "host0"
*.host4.app[8].source.packetNameFormat = "%M-%m-%c"
*.host4.app[8].source.displayStringTextFormat = "sent %p pk (%l)"
*.host4.app[8].messageLength = 12B
*.host4.app[8].sendInterval = 1ms
*.host4.app[8].startTime = 7300us
*.host4.app[8].stopTime = 7900us
*.host4.app[8].display-name = "type2_5"
*.host4.app[8].destPort = 1001
*.host4.app[9].typename = "UdpBasicApp"
*.host4.app[9].destAddresses = "host0"
*.host4.app[9].source.packetNameFormat = "%M-%m-%c"
*.host4.app[9].source.displayStringTextFormat = "sent %p pk (%l)"
*.host4.app[9].messageLength = 12B
*.host4.app[9].sendInterval = 1ms
*.host4.app[9].startTime = 9400us
*.host4.app[9].stopTime = 10000us
*.host4.app[9].display-name = "type2_5"
*.host4.app[9].destPort = 1001
*.host5.numApps = 8
*.host5.app[0].typename = "UdpSinkApp"
*.host5.app[0].io.localPort = 1000
*.host5.app[1].typename = "UdpBasicApp"
*.host5.app[1].destAddresses = "host7"
*.host5.app[1].source.packetNameFormat = "%M-%m-%c"
*.host5.app[1].source.displayStringTextFormat = "sent %p pk (%l)"
*.host5.app[1].messageLength = 20B
*.host5.app[1].sendInterval = 1ms
*.host5.app[1].startTime = 0us
*.host5.app[1].stopTime = 2200us
*.host5.app[1].display-name = "type2_0"
*.host5.app[1].destPort = 1000
*.host5.app[2].typename = "UdpBasicApp"
*.host5.app[2].destAddresses = "host7"
*.host5.app[2].source.packetNameFormat = "%M-%m-%c"
*.host5.app[2].source.displayStringTextFormat = "sent %p pk (%l)"
*.host5.app[2].messageLength = 20B
*.host5.app[2].sendInterval = 1ms
*.host5.app[2].startTime = 3100us
*.host5.app[2].stopTime = 3800us
*.host5.app[2].display-name = "type2_0"
*.host5.app[2].destPort = 1000
*.host5.app[3].typename = "UdpBasicApp"
*.host5.app[3].destAddresses = "host7"
*.host5.app[3].source.packetNameFormat = "%M-%m-%c"
*.host5.app[3].source.displayStringTextFormat = "sent %p pk (%l)"
*.host5.app[3].messageLength = 20B
*.host5.app[3].sendInterval = 1ms
*.host5.app[3].startTime = 4400us
*.host5.app[3].stopTime = 4500us
*.host5.app[3].display-name = "type2_0"
*.host5.app[3].destPort = 1000
*.host5.app[4].typename = "UdpBasicApp"
*.host5.app[4].destAddresses = "host7"
*.host5.app[4].source.packetNameFormat = "%M-%m-%c"
*.host5.app[4].source.displayStringTextFormat = "sent %p pk (%l)"
*.host5.app[4].messageLength = 20B
*.host5.app[4].sendInterval = 1ms
*.host5.app[4].startTime = 4600us
*.host5.app[4].stopTime = 5600us
*.host5.app[4].display-name = "type2_0"
*.host5.app[4].destPort = 1000
*.host5.app[5].typename = "UdpBasicApp"
*.host5.app[5].destAddresses = "host7"
*.host5.app[5].source.packetNameFormat = "%M-%m-%c"
*.host5.app[5].source.displayStringTextFormat = "sent %p pk (%l)"
*.host5.app[5].messageLength = 20B
*.host5.app[5].sendInterval = 1ms
*.host5.app[5].startTime = 6400us
*.host5.app[5].stopTime = 7500us
*.host5.app[5].display-name = "type2_0"
*.host5.app[5].destPort = 1000
*.host5.app[6].typename = "UdpBasicApp"
*.host5.app[6].destAddresses = "host7"
*.host5.app[6].source.packetNameFormat = "%M-%m-%c"
*.host5.app[6].source.displayStringTextFormat = "sent %p pk (%l)"
*.host5.app[6].messageLength = 20B
*.host5.app[6].sendInterval = 1ms
*.host5.app[6].startTime = 7600us
*.host5.app[6].stopTime = 7800us
*.host5.app[6].display-name = "type2_0"
*.host5.app[6].destPort = 1000
*.host5.app[7].typename = "UdpBasicApp"
*.host5.app[7].destAddresses = "host7"
*.host5.app[7].source.packetNameFormat = "%M-%m-%c"
*.host5.app[7].source.displayStringTextFormat = "sent %p pk (%l)"
*.host5.app[7].messageLength = 20B
*.host5.app[7].sendInterval = 1ms
*.host5.app[7].startTime = 8400us
*.host5.app[7].stopTime = 10000us
*.host5.app[7].display-name = "type2_0"
*.host5.app[7].destPort = 1000
*.host6.numApps = 7
*.host6.app[0].typename = "UdpBasicApp"
*.host6.app[0].destAddresses = "host4"
*.host6.app[0].source.packetNameFormat = "%M-%m-%c"
*.host6.app[0].source.displayStringTextFormat = "sent %p pk (%l)"
*.host6.app[0].messageLength = 16B
*.host6.app[0].sendInterval = 1ms
*.host6.app[0].startTime = 300us
*.host6.app[0].stopTime = 400us
*.host6.app[0].display-name = "type2_3"
*.host6.app[0].destPort = 1000
*.host6.app[1].typename = "UdpBasicApp"
*.host6.app[1].destAddresses = "host4"
*.host6.app[1].source.packetNameFormat = "%M-%m-%c"
*.host6.app[1].source.displayStringTextFormat = "sent %p pk (%l)"
*.host6.app[1].messageLength = 16B
*.host6.app[1].sendInterval = 1ms
*.host6.app[1].startTime = 2200us
*.host6.app[1].stopTime = 2400us
*.host6.app[1].display-name = "type2_3"
*.host6.app[1].destPort = 1000
*.host6.app[2].typename = "UdpBasicApp"
*.host6.app[2].destAddresses = "host4"
*.host6.app[2].source.packetNameFormat = "%M-%m-%c"
*.host6.app[2].source.displayStringTextFormat = "sent %p pk (%l)"
*.host6.app[2].messageLength = 16B
*.host6.app[2].sendInterval = 1ms
*.host6.app[2].startTime = 2500us
*.host6.app[2].stopTime = 4000us
*.host6.app[2].display-name = "type2_3"
*.host6.app[2].destPort = 1000
*.host6.app[3].typename = "UdpBasicApp"
*.host6.app[3].destAddresses = "host4"
*.host6.app[3].source.packetNameFormat = "%M-%m-%c"
*.host6.app[3].source.displayStringTextFormat = "sent %p pk (%l)"
*.host6.app[3].messageLength = 16B
*.host6.app[3].sendInterval = 1ms
*.host6.app[3].startTime = 4400us
*.host6.app[3].stopTime = 4700us
*.host6.app[3].display-name = "type2_3"
*.host6.app[3].destPort = 1000
*.host6.app[4].typename = "UdpBasicApp"
*.host6.app[4].destAddresses = "host4"
*.host6.app[4].source.packetNameFormat = "%M-%m-%c"
*.host6.app[4].source.displayStringTextFormat = "sent %p pk (%l)"
*.host6.app[4].messageLength = 16B
*.host6.app[4].sendInterval = 1ms
*.host6.app[4].startTime = 5000us
*.host6.app[4].stopTime = 5300us
*.host6.app[4].display-name = "type2_3"
*.host6.app[4].destPort = 1000
*.host6.app[5].typename = "UdpBasicApp"
*.host6.app[5].destAddresses = "host4"
*.host6.app[5].source.packetNameFormat = "%M-%m-%c"
*.host6.app[5].source.displayStringTextFormat = "sent %p pk (%l)"
*.host6.app[5].messageLength = 16B
*.host6.app[5].sendInterval = 1ms
*.host6.app[5].startTime = 6100us
*.host6.app[5].stopTime = 7000us
*.host6.app[5].display-name = "type2_3"
*.host6.app[5].destPort = 1000
*.host6.app[6].typename = "UdpBasicApp"
*.host6.app[6].destAddresses = "host4"
*.host6.app[6].source.packetNameFormat = "%M-%m-%c"
*.host6.app[6].source.displayStringTextFormat = "sent %p pk (%l)"
*.host6.app[6].messageLength = 16B
*.host6.app[6].sendInterval = 1ms
*.host6.app[6].startTime = 7700us
*.host6.app[6].stopTime = 9100us
*.host6.app[6].display-name = "type2_3"
*.host6.app[6].destPort = 1000
*.host7.numApps = 10
*.host7.app[0].typename = "UdpSourceApp"
*.host7.app[0].io.destAddress = "host2"
*.host7.app[0].source.packetNameFormat = "%M-%m-%c"
*.host7.app[0].source.displayStringTextFormat = "sent %p pk (%l)"
*.host7.app[0].source.packetLength = 13B
*.host7.app[0].source.productionInterval = 1ms
*.host7.app[0].display-name = "type1_4"
*.host7.app[0].io.destPort = 1000
*.host7.app[1].typename = "UdpSinkApp"
*.host7.app[1].io.localPort = 1000
*.host7.app[2].typename = "UdpSinkApp"
*.host7.app[2].io.localPort = 1001
*.host7.app[3].typename = "UdpBasicApp"
*.host7.app[3].destAddresses = "host3"
*.host7.app[3].source.packetNameFormat = "%M-%m-%c"
*.host7.app[3].source.displayStringTextFormat = "sent %p pk (%l)"
*.host7.app[3].messageLength = 18B
*.host7.app[3].sendInterval = 1ms
*.host7.app[3].startTime = 100us
*.host7.app[3].stopTime = 700us
*.host7.app[3].display-name = "type2_6"
*.host7.app[3].destPort = 1000
*.host7.app[4].typename = "UdpBasicApp"
*.host7.app[4].destAddresses = "host3"
*.host7.app[4].source.packetNameFormat = "%M-%m-%c"
*.host7.app[4].source.displayStringTextFormat = "sent %p pk (%l)"
*.host7.app[4].messageLength = 18B
*.host7.app[4].sendInterval = 1ms
*.host7.app[4].startTime = 1600us
*.host7.app[4].stopTime = 2000us
*.host7.app[4].display-name = "type2_6"
*.host7.app[4].destPort = 1000
*.host7.app[5].typename = "UdpBasicApp"
*.host7.app[5].destAddresses = "host3"
*.host7.app[5].source.packetNameFormat = "%M-%m-%c"
*.host7.app[5].source.displayStringTextFormat = "sent %p pk (%l)"
*.host7.app[5].messageLength = 18B
*.host7.app[5].sendInterval = 1ms
*.host7.app[5].startTime = 3000us
*.host7.app[5].stopTime = 3200us
*.host7.app[5].display-name = "type2_6"
*.host7.app[5].destPort = 1000
*.host7.app[6].typename = "UdpBasicApp"
*.host7.app[6].destAddresses = "host3"
*.host7.app[6].source.packetNameFormat = "%M-%m-%c"
*.host7.app[6].source.displayStringTextFormat = "sent %p pk (%l)"
*.host7.app[6].messageLength = 18B
*.host7.app[6].sendInterval = 1ms
*.host7.app[6].startTime = 3700us
*.host7.app[6].stopTime = 4600us
*.host7.app[6].display-name = "type2_6"
*.host7.app[6].destPort = 1000
*.host7.app[7].typename = "UdpBasicApp"
*.host7.app[7].destAddresses = "host3"
*.host7.app[7].source.packetNameFormat = "%M-%m-%c"
*.host7.app[7].source.displayStringTextFormat = "sent %p pk (%l)"
*.host7.app[7].messageLength = 18B
*.host7.app[7].sendInterval = 1ms
*.host7.app[7].startTime = 4700us
*.host7.app[7].stopTime = 4900us
*.host7.app[7].display-name = "type2_6"
*.host7.app[7].destPort = 1000
*.host7.app[8].typename = "UdpBasicApp"
*.host7.app[8].destAddresses = "host3"
*.host7.app[8].source.packetNameFormat = "%M-%m-%c"
*.host7.app[8].source.displayStringTextFormat = "sent %p pk (%l)"
*.host7.app[8].messageLength = 18B
*.host7.app[8].sendInterval = 1ms
*.host7.app[8].startTime = 6700us
*.host7.app[8].stopTime = 7300us
*.host7.app[8].display-name = "type2_6"
*.host7.app[8].destPort = 1000
*.host7.app[9].typename = "UdpBasicApp"
*.host7.app[9].destAddresses = "host3"
*.host7.app[9].source.packetNameFormat = "%M-%m-%c"
*.host7.app[9].source.displayStringTextFormat = "sent %p pk (%l)"
*.host7.app[9].messageLength = 18B
*.host7.app[9].sendInterval = 1ms
*.host7.app[9].startTime = 8600us
*.host7.app[9].stopTime = 9000us
*.host7.app[9].display-name = "type2_6"
*.host7.app[9].destPort = 1000
*.host8.numApps = 4
*.host8.app[0].typename = "UdpSinkApp"
*.host8.app[0].io.localPort = 1000
*.host8.app[1].typename = "UdpSinkApp"
*.host8.app[1].io.localPort = 1001
*.host8.app[2].typename = "UdpSinkApp"
*.host8.app[2].io.localPort = 1002
*.host8.app[3].typename = "UdpSinkApp"
*.host8.app[3].io.localPort = 1003
*.host9.numApps = 0
*.streamRedundancyConfigurator.configuration = [
	{
		name: "S1-0",
		packetFilter: "*-type1_0-*",
		source: "host4",
		destination: "host0",
		trees: [[["host4", "switch4", "switch3", "switch5", "switch0", "host0"]]]
	},
	{
		name: "S1-1",
		packetFilter: "*-type1_1-*",
		source: "host2",
		destination: "host8",
		trees: [[["host2", "switch2", "switch6", "switch3", "switch8", "host8"]]]
	},
	{
		name: "S1-2",
		packetFilter: "*-type1_2-*",
		source: "host4",
		destination: "host8",
		trees: [[["host4", "switch4", "switch3", "switch8", "host8"]]]
	},
	{
		name: "S1-3",
		packetFilter: "*-type1_3-*",
		source: "host3",
		destination: "host8",
		trees: [[["host3", "switch3", "switch8", "host8"]]]
	},
	{
		name: "S1-4",
		packetFilter: "*-type1_4-*",
		source: "host7",
		destination: "host2",
		trees: [[["host7", "switch7", "switch3", "switch8", "switch1", "switch2", "host2"]]]
	},
	{
		name: "S1-5",
		packetFilter: "*-type1_5-*",
		source: "host1",
		destination: "host8",
		trees: [[["host1", "switch1", "switch8", "host8"]]]
	},
	{
		name: "S1-6",
		packetFilter: "*-type1_6-*",
		source: "host0",
		destination: "host5",
		trees: [[["host0", "switch0", "switch5", "host5"]]]
	},
	{
		name: "S2-0",
		packetFilter: "*-type2_0-*",
		source: "host5",
		destination: "host7",
		trees: [[["host5", "switch5", "switch7", "host7"]]]
	},
	{
		name: "S2-1",
		packetFilter: "*-type2_1-*",
		source: "host2",
		destination: "host7",
		trees: [[["host2", "switch2", "switch6", "switch3", "switch5", "switch7", "host7"]]]
	},
	{
		name: "S2-2",
		packetFilter: "*-type2_2-*",
		source: "host0",
		destination: "host1",
		trees: [[["host0", "switch0", "switch5", "switch6", "switch1", "host1"]]]
	},
	{
		name: "S2-3",
		packetFilter: "*-type2_3-*",
		source: "host6",
		destination: "host4",
		trees: [[["host6", "switch6", "switch4", "host4"]]]
	},
	{
		name: "S2-4",
		packetFilter: "*-type2_4-*",
		source: "host0",
		destination: "host1",
		trees: [[["host0", "switch0", "switch5", "switch6", "switch1", "host1"]]]
	},
	{
		name: "S2-5",
		packetFilter: "*-type2_5-*",
		source: "host4",
		destination: "host0",
		trees: [[["host4", "switch4", "switch3", "switch0", "host0"]]]
	},
	{
		name: "S2-6",
		packetFilter: "*-type2_6-*",
		source: "host7",
		destination: "host3",
		trees: [[["host7", "switch7", "switch3", "host3"]]]
	}]
	

