[General]
network = TSN_multipath
sim-time-limit = 10ms
*.macForwardingTableConfigurator.typename = ""
*.*.hasStreamRedundancy = true
*.*.bridging.streamRelay.typename = "StreamRelayLayer"
*.*.bridging.streamCoder.typename = "StreamCoderLayer"
*.streamRedundancyConfigurator.typename = "StreamRedundancyConfigurator"
*.host0.eth[0].bitrate = 1000Mbps
*.switch0.eth[0].bitrate = 1000Mbps
*.switch0.eth[1].bitrate = 2200Mbps
*.switch0.eth[2].bitrate = 1700Mbps
*.host1.eth[0].bitrate = 1000Mbps
*.switch1.eth[0].bitrate = 1000Mbps
*.switch1.eth[1].bitrate = 1900Mbps
*.switch1.eth[2].bitrate = 2000Mbps
*.switch1.eth[3].bitrate = 1800Mbps
*.switch1.eth[4].bitrate = 2200Mbps
*.host2.eth[0].bitrate = 1000Mbps
*.switch2.eth[0].bitrate = 1000Mbps
*.switch2.eth[1].bitrate = 1700Mbps
*.switch2.eth[2].bitrate = 1800Mbps
*.switch2.eth[3].bitrate = 2000Mbps
*.switch2.eth[4].bitrate = 2300Mbps
*.host3.eth[0].bitrate = 1000Mbps
*.switch3.eth[0].bitrate = 1000Mbps
*.switch3.eth[1].bitrate = 1900Mbps
*.switch3.eth[2].bitrate = 2000Mbps
*.switch3.eth[3].bitrate = 2300Mbps
*.switch3.eth[4].bitrate = 1300Mbps
*.host4.eth[0].bitrate = 1000Mbps
*.switch4.eth[0].bitrate = 1000Mbps
*.switch4.eth[1].bitrate = 2200Mbps
*.switch4.eth[2].bitrate = 2000Mbps
*.switch4.eth[3].bitrate = 2200Mbps
*.switch4.eth[4].bitrate = 1300Mbps
*.host0.numApps = 3
*.host0.app[0].typename = "UdpSinkApp"
*.host0.app[0].io.localPort = 1000
*.host0.app[1].typename = "UdpSinkApp"
*.host0.app[1].io.localPort = 1001
*.host0.app[2].typename = "UdpSinkApp"
*.host0.app[2].io.localPort = 1002
*.host1.numApps = 0
*.host2.numApps = 16
*.host2.app[0].typename = "UdpSourceApp"
*.host2.app[0].io.destAddress = "host0"
*.host2.app[0].source.packetNameFormat = "%M-%m-%c"
*.host2.app[0].source.displayStringTextFormat = "sent %p pk (%l)"
*.host2.app[0].source.packetLength = 17B
*.host2.app[0].source.productionInterval = 1ms
*.host2.app[0].display-name = "type1_0"
*.host2.app[0].io.destPort = 1000
*.host2.app[1].typename = "UdpSinkApp"
*.host2.app[1].io.localPort = 1000
*.host2.app[2].typename = "UdpBasicApp"
*.host2.app[2].destAddresses = "host0"
*.host2.app[2].source.packetNameFormat = "%M-%m-%c"
*.host2.app[2].source.displayStringTextFormat = "sent %p pk (%l)"
*.host2.app[2].messageLength = 20B
*.host2.app[2].sendInterval = 1ms
*.host2.app[2].startTime = 100us
*.host2.app[2].stopTime = 500us
*.host2.app[2].display-name = "type2_0"
*.host2.app[2].destPort = 1001
*.host2.app[3].typename = "UdpBasicApp"
*.host2.app[3].destAddresses = "host0"
*.host2.app[3].source.packetNameFormat = "%M-%m-%c"
*.host2.app[3].source.displayStringTextFormat = "sent %p pk (%l)"
*.host2.app[3].messageLength = 20B
*.host2.app[3].sendInterval = 1ms
*.host2.app[3].startTime = 2000us
*.host2.app[3].stopTime = 2500us
*.host2.app[3].display-name = "type2_0"
*.host2.app[3].destPort = 1001
*.host2.app[4].typename = "UdpBasicApp"
*.host2.app[4].destAddresses = "host0"
*.host2.app[4].source.packetNameFormat = "%M-%m-%c"
*.host2.app[4].source.displayStringTextFormat = "sent %p pk (%l)"
*.host2.app[4].messageLength = 20B
*.host2.app[4].sendInterval = 1ms
*.host2.app[4].startTime = 3400us
*.host2.app[4].stopTime = 3700us
*.host2.app[4].display-name = "type2_0"
*.host2.app[4].destPort = 1001
*.host2.app[5].typename = "UdpBasicApp"
*.host2.app[5].destAddresses = "host0"
*.host2.app[5].source.packetNameFormat = "%M-%m-%c"
*.host2.app[5].source.displayStringTextFormat = "sent %p pk (%l)"
*.host2.app[5].messageLength = 20B
*.host2.app[5].sendInterval = 1ms
*.host2.app[5].startTime = 6800us
*.host2.app[5].stopTime = 8200us
*.host2.app[5].display-name = "type2_0"
*.host2.app[5].destPort = 1001
*.host2.app[6].typename = "UdpBasicApp"
*.host2.app[6].destAddresses = "host3"
*.host2.app[6].source.packetNameFormat = "%M-%m-%c"
*.host2.app[6].source.displayStringTextFormat = "sent %p pk (%l)"
*.host2.app[6].messageLength = 19B
*.host2.app[6].sendInterval = 1ms
*.host2.app[6].startTime = 2200us
*.host2.app[6].stopTime = 3300us
*.host2.app[6].display-name = "type2_2"
*.host2.app[6].destPort = 1001
*.host2.app[7].typename = "UdpBasicApp"
*.host2.app[7].destAddresses = "host3"
*.host2.app[7].source.packetNameFormat = "%M-%m-%c"
*.host2.app[7].source.displayStringTextFormat = "sent %p pk (%l)"
*.host2.app[7].messageLength = 19B
*.host2.app[7].sendInterval = 1ms
*.host2.app[7].startTime = 4700us
*.host2.app[7].stopTime = 4800us
*.host2.app[7].display-name = "type2_2"
*.host2.app[7].destPort = 1001
*.host2.app[8].typename = "UdpBasicApp"
*.host2.app[8].destAddresses = "host3"
*.host2.app[8].source.packetNameFormat = "%M-%m-%c"
*.host2.app[8].source.displayStringTextFormat = "sent %p pk (%l)"
*.host2.app[8].messageLength = 19B
*.host2.app[8].sendInterval = 1ms
*.host2.app[8].startTime = 6500us
*.host2.app[8].stopTime = 7800us
*.host2.app[8].display-name = "type2_2"
*.host2.app[8].destPort = 1001
*.host2.app[9].typename = "UdpBasicApp"
*.host2.app[9].destAddresses = "host3"
*.host2.app[9].source.packetNameFormat = "%M-%m-%c"
*.host2.app[9].source.displayStringTextFormat = "sent %p pk (%l)"
*.host2.app[9].messageLength = 19B
*.host2.app[9].sendInterval = 1ms
*.host2.app[9].startTime = 8400us
*.host2.app[9].stopTime = 9500us
*.host2.app[9].display-name = "type2_2"
*.host2.app[9].destPort = 1001
*.host2.app[10].typename = "UdpBasicApp"
*.host2.app[10].destAddresses = "host0"
*.host2.app[10].source.packetNameFormat = "%M-%m-%c"
*.host2.app[10].source.displayStringTextFormat = "sent %p pk (%l)"
*.host2.app[10].messageLength = 22B
*.host2.app[10].sendInterval = 1ms
*.host2.app[10].startTime = 700us
*.host2.app[10].stopTime = 2700us
*.host2.app[10].display-name = "type2_3"
*.host2.app[10].destPort = 1002
*.host2.app[11].typename = "UdpBasicApp"
*.host2.app[11].destAddresses = "host0"
*.host2.app[11].source.packetNameFormat = "%M-%m-%c"
*.host2.app[11].source.displayStringTextFormat = "sent %p pk (%l)"
*.host2.app[11].messageLength = 22B
*.host2.app[11].sendInterval = 1ms
*.host2.app[11].startTime = 2800us
*.host2.app[11].stopTime = 3200us
*.host2.app[11].display-name = "type2_3"
*.host2.app[11].destPort = 1002
*.host2.app[12].typename = "UdpBasicApp"
*.host2.app[12].destAddresses = "host0"
*.host2.app[12].source.packetNameFormat = "%M-%m-%c"
*.host2.app[12].source.displayStringTextFormat = "sent %p pk (%l)"
*.host2.app[12].messageLength = 22B
*.host2.app[12].sendInterval = 1ms
*.host2.app[12].startTime = 4500us
*.host2.app[12].stopTime = 5200us
*.host2.app[12].display-name = "type2_3"
*.host2.app[12].destPort = 1002
*.host2.app[13].typename = "UdpBasicApp"
*.host2.app[13].destAddresses = "host0"
*.host2.app[13].source.packetNameFormat = "%M-%m-%c"
*.host2.app[13].source.displayStringTextFormat = "sent %p pk (%l)"
*.host2.app[13].messageLength = 22B
*.host2.app[13].sendInterval = 1ms
*.host2.app[13].startTime = 5700us
*.host2.app[13].stopTime = 6100us
*.host2.app[13].display-name = "type2_3"
*.host2.app[13].destPort = 1002
*.host2.app[14].typename = "UdpBasicApp"
*.host2.app[14].destAddresses = "host0"
*.host2.app[14].source.packetNameFormat = "%M-%m-%c"
*.host2.app[14].source.displayStringTextFormat = "sent %p pk (%l)"
*.host2.app[14].messageLength = 22B
*.host2.app[14].sendInterval = 1ms
*.host2.app[14].startTime = 6700us
*.host2.app[14].stopTime = 8100us
*.host2.app[14].display-name = "type2_3"
*.host2.app[14].destPort = 1002
*.host2.app[15].typename = "UdpBasicApp"
*.host2.app[15].destAddresses = "host0"
*.host2.app[15].source.packetNameFormat = "%M-%m-%c"
*.host2.app[15].source.displayStringTextFormat = "sent %p pk (%l)"
*.host2.app[15].messageLength = 22B
*.host2.app[15].sendInterval = 1ms
*.host2.app[15].startTime = 9000us
*.host2.app[15].stopTime = 10000us
*.host2.app[15].display-name = "type2_3"
*.host2.app[15].destPort = 1002
*.host3.numApps = 2
*.host3.app[0].typename = "UdpSinkApp"
*.host3.app[0].io.localPort = 1000
*.host3.app[1].typename = "UdpSinkApp"
*.host3.app[1].io.localPort = 1001
*.host4.numApps = 7
*.host4.app[0].typename = "UdpSourceApp"
*.host4.app[0].io.destAddress = "host2"
*.host4.app[0].source.packetNameFormat = "%M-%m-%c"
*.host4.app[0].source.displayStringTextFormat = "sent %p pk (%l)"
*.host4.app[0].source.packetLength = 18B
*.host4.app[0].source.productionInterval = 1ms
*.host4.app[0].display-name = "type1_1"
*.host4.app[0].io.destPort = 1000
*.host4.app[1].typename = "UdpBasicApp"
*.host4.app[1].destAddresses = "host3"
*.host4.app[1].source.packetNameFormat = "%M-%m-%c"
*.host4.app[1].source.displayStringTextFormat = "sent %p pk (%l)"
*.host4.app[1].messageLength = 14B
*.host4.app[1].sendInterval = 1ms
*.host4.app[1].startTime = 600us
*.host4.app[1].stopTime = 2500us
*.host4.app[1].display-name = "type2_1"
*.host4.app[1].destPort = 1000
*.host4.app[2].typename = "UdpBasicApp"
*.host4.app[2].destAddresses = "host3"
*.host4.app[2].source.packetNameFormat = "%M-%m-%c"
*.host4.app[2].source.displayStringTextFormat = "sent %p pk (%l)"
*.host4.app[2].messageLength = 14B
*.host4.app[2].sendInterval = 1ms
*.host4.app[2].startTime = 3100us
*.host4.app[2].stopTime = 4000us
*.host4.app[2].display-name = "type2_1"
*.host4.app[2].destPort = 1000
*.host4.app[3].typename = "UdpBasicApp"
*.host4.app[3].destAddresses = "host3"
*.host4.app[3].source.packetNameFormat = "%M-%m-%c"
*.host4.app[3].source.displayStringTextFormat = "sent %p pk (%l)"
*.host4.app[3].messageLength = 14B
*.host4.app[3].sendInterval = 1ms
*.host4.app[3].startTime = 4800us
*.host4.app[3].stopTime = 6700us
*.host4.app[3].display-name = "type2_1"
*.host4.app[3].destPort = 1000
*.host4.app[4].typename = "UdpBasicApp"
*.host4.app[4].destAddresses = "host3"
*.host4.app[4].source.packetNameFormat = "%M-%m-%c"
*.host4.app[4].source.displayStringTextFormat = "sent %p pk (%l)"
*.host4.app[4].messageLength = 14B
*.host4.app[4].sendInterval = 1ms
*.host4.app[4].startTime = 7300us
*.host4.app[4].stopTime = 8700us
*.host4.app[4].display-name = "type2_1"
*.host4.app[4].destPort = 1000
*.host4.app[5].typename = "UdpBasicApp"
*.host4.app[5].destAddresses = "host3"
*.host4.app[5].source.packetNameFormat = "%M-%m-%c"
*.host4.app[5].source.displayStringTextFormat = "sent %p pk (%l)"
*.host4.app[5].messageLength = 14B
*.host4.app[5].sendInterval = 1ms
*.host4.app[5].startTime = 8900us
*.host4.app[5].stopTime = 9000us
*.host4.app[5].display-name = "type2_1"
*.host4.app[5].destPort = 1000
*.host4.app[6].typename = "UdpBasicApp"
*.host4.app[6].destAddresses = "host3"
*.host4.app[6].source.packetNameFormat = "%M-%m-%c"
*.host4.app[6].source.displayStringTextFormat = "sent %p pk (%l)"
*.host4.app[6].messageLength = 14B
*.host4.app[6].sendInterval = 1ms
*.host4.app[6].startTime = 9200us
*.host4.app[6].stopTime = 10000us
*.host4.app[6].display-name = "type2_1"
*.host4.app[6].destPort = 1000
*.streamRedundancyConfigurator.configuration = [
	{
		name: "S1-0",
		packetFilter: "*-type1_0-*",
		source: "host2",
		destination: "host0",
		trees: [[["host2", "switch2", "switch0", "host0"]]]
	},
	{
		name: "S1-1",
		packetFilter: "*-type1_1-*",
		source: "host4",
		destination: "host2",
		trees: [[["host4", "switch4", "switch3", "switch2", "host2"]]]
	},
	{
		name: "S2-0",
		packetFilter: "*-type2_0-*",
		source: "host2",
		destination: "host0",
		trees: [[["host2", "switch2", "switch0", "host0"]]]
	},
	{
		name: "S2-1",
		packetFilter: "*-type2_1-*",
		source: "host4",
		destination: "host3",
		trees: [[["host4", "switch4", "switch3", "host3"]]]
	},
	{
		name: "S2-2",
		packetFilter: "*-type2_2-*",
		source: "host2",
		destination: "host3",
		trees: [[["host2", "switch2", "switch0", "switch4", "switch3", "host3"]]]
	},
	{
		name: "S2-3",
		packetFilter: "*-type2_3-*",
		source: "host2",
		destination: "host0",
		trees: [[["host2", "switch2", "switch0", "host0"]]]
	}]
	

