[General]
network = TSN_multipath
sim-time-limit = 100ms
*.macForwardingTableConfigurator.typename = ""
*.*.hasStreamRedundancy = true
*.*.bridging.streamRelay.typename = "StreamRelayLayer"
*.*.bridging.streamCoder.typename = "StreamCoderLayer"
*.streamRedundancyConfigurator.typename = "StreamRedundancyConfigurator"
*.host0.eth[0].bitrate = 1000Mbps
*.switch0.eth[0].bitrate = 1000Mbps
*.switch0.eth[1].bitrate = 2400Mbps
*.switch0.eth[2].bitrate = 2400Mbps
*.switch0.eth[3].bitrate = 1600Mbps
*.switch0.eth[4].bitrate = 1300Mbps
*.switch0.eth[5].bitrate = 2100Mbps
*.host1.eth[0].bitrate = 1000Mbps
*.switch1.eth[0].bitrate = 1000Mbps
*.switch1.eth[1].bitrate = 2200Mbps
*.switch1.eth[2].bitrate = 2000Mbps
*.switch1.eth[3].bitrate = 2300Mbps
*.switch1.eth[4].bitrate = 2200Mbps
*.host2.eth[0].bitrate = 1000Mbps
*.switch2.eth[0].bitrate = 1000Mbps
*.switch2.eth[1].bitrate = 2400Mbps
*.switch2.eth[2].bitrate = 2200Mbps
*.switch2.eth[3].bitrate = 1300Mbps
*.switch2.eth[4].bitrate = 2400Mbps
*.switch2.eth[5].bitrate = 1900Mbps
*.switch2.eth[6].bitrate = 1900Mbps
*.host3.eth[0].bitrate = 1000Mbps
*.switch3.eth[0].bitrate = 1000Mbps
*.switch3.eth[1].bitrate = 2400Mbps
*.switch3.eth[2].bitrate = 2000Mbps
*.switch3.eth[3].bitrate = 2400Mbps
*.switch3.eth[4].bitrate = 2100Mbps
*.host4.eth[0].bitrate = 1000Mbps
*.switch4.eth[0].bitrate = 1000Mbps
*.switch4.eth[1].bitrate = 1600Mbps
*.switch4.eth[2].bitrate = 2300Mbps
*.switch4.eth[3].bitrate = 1900Mbps
*.switch4.eth[4].bitrate = 2200Mbps
*.switch4.eth[5].bitrate = 1900Mbps
*.host0.numApps = 14
*.host0.app[0].typename = "UdpSinkApp"
*.host0.app[0].io.localPort = 1000
*.host0.app[1].typename = "UdpBasicApp"
*.host0.app[1].destAddresses = "host3"
*.host0.app[1].source.packetNameFormat = "%M-%m-%c"
*.host0.app[1].source.displayStringTextFormat = "sent %p pk (%l)"
*.host0.app[1].messageLength = 19B
*.host0.app[1].sendInterval = 1ms
*.host0.app[1].startTime = 24ms
*.host0.app[1].stopTime = 28ms
*.host0.app[1].display-name = "type2_2"
*.host0.app[1].destPort = 1002
*.host0.app[2].typename = "UdpBasicApp"
*.host0.app[2].destAddresses = "host3"
*.host0.app[2].source.packetNameFormat = "%M-%m-%c"
*.host0.app[2].source.displayStringTextFormat = "sent %p pk (%l)"
*.host0.app[2].messageLength = 19B
*.host0.app[2].sendInterval = 1ms
*.host0.app[2].startTime = 35ms
*.host0.app[2].stopTime = 47ms
*.host0.app[2].display-name = "type2_2"
*.host0.app[2].destPort = 1002
*.host0.app[3].typename = "UdpBasicApp"
*.host0.app[3].destAddresses = "host3"
*.host0.app[3].source.packetNameFormat = "%M-%m-%c"
*.host0.app[3].source.displayStringTextFormat = "sent %p pk (%l)"
*.host0.app[3].messageLength = 19B
*.host0.app[3].sendInterval = 1ms
*.host0.app[3].startTime = 65ms
*.host0.app[3].stopTime = 73ms
*.host0.app[3].display-name = "type2_2"
*.host0.app[3].destPort = 1002
*.host0.app[4].typename = "UdpBasicApp"
*.host0.app[4].destAddresses = "host3"
*.host0.app[4].source.packetNameFormat = "%M-%m-%c"
*.host0.app[4].source.displayStringTextFormat = "sent %p pk (%l)"
*.host0.app[4].messageLength = 19B
*.host0.app[4].sendInterval = 1ms
*.host0.app[4].startTime = 75ms
*.host0.app[4].stopTime = 81ms
*.host0.app[4].display-name = "type2_2"
*.host0.app[4].destPort = 1002
*.host0.app[5].typename = "UdpBasicApp"
*.host0.app[5].destAddresses = "host3"
*.host0.app[5].source.packetNameFormat = "%M-%m-%c"
*.host0.app[5].source.displayStringTextFormat = "sent %p pk (%l)"
*.host0.app[5].messageLength = 19B
*.host0.app[5].sendInterval = 1ms
*.host0.app[5].startTime = 82ms
*.host0.app[5].stopTime = 91ms
*.host0.app[5].display-name = "type2_2"
*.host0.app[5].destPort = 1002
*.host0.app[6].typename = "UdpBasicApp"
*.host0.app[6].destAddresses = "host2"
*.host0.app[6].source.packetNameFormat = "%M-%m-%c"
*.host0.app[6].source.displayStringTextFormat = "sent %p pk (%l)"
*.host0.app[6].messageLength = 15B
*.host0.app[6].sendInterval = 1ms
*.host0.app[6].startTime = 3ms
*.host0.app[6].stopTime = 6ms
*.host0.app[6].display-name = "type2_3"
*.host0.app[6].destPort = 1000
*.host0.app[7].typename = "UdpBasicApp"
*.host0.app[7].destAddresses = "host2"
*.host0.app[7].source.packetNameFormat = "%M-%m-%c"
*.host0.app[7].source.displayStringTextFormat = "sent %p pk (%l)"
*.host0.app[7].messageLength = 15B
*.host0.app[7].sendInterval = 1ms
*.host0.app[7].startTime = 8ms
*.host0.app[7].stopTime = 16ms
*.host0.app[7].display-name = "type2_3"
*.host0.app[7].destPort = 1000
*.host0.app[8].typename = "UdpBasicApp"
*.host0.app[8].destAddresses = "host2"
*.host0.app[8].source.packetNameFormat = "%M-%m-%c"
*.host0.app[8].source.displayStringTextFormat = "sent %p pk (%l)"
*.host0.app[8].messageLength = 15B
*.host0.app[8].sendInterval = 1ms
*.host0.app[8].startTime = 27ms
*.host0.app[8].stopTime = 32ms
*.host0.app[8].display-name = "type2_3"
*.host0.app[8].destPort = 1000
*.host0.app[9].typename = "UdpBasicApp"
*.host0.app[9].destAddresses = "host2"
*.host0.app[9].source.packetNameFormat = "%M-%m-%c"
*.host0.app[9].source.displayStringTextFormat = "sent %p pk (%l)"
*.host0.app[9].messageLength = 15B
*.host0.app[9].sendInterval = 1ms
*.host0.app[9].startTime = 60ms
*.host0.app[9].stopTime = 68ms
*.host0.app[9].display-name = "type2_3"
*.host0.app[9].destPort = 1000
*.host0.app[10].typename = "UdpBasicApp"
*.host0.app[10].destAddresses = "host2"
*.host0.app[10].source.packetNameFormat = "%M-%m-%c"
*.host0.app[10].source.displayStringTextFormat = "sent %p pk (%l)"
*.host0.app[10].messageLength = 15B
*.host0.app[10].sendInterval = 1ms
*.host0.app[10].startTime = 71ms
*.host0.app[10].stopTime = 74ms
*.host0.app[10].display-name = "type2_3"
*.host0.app[10].destPort = 1000
*.host0.app[11].typename = "UdpBasicApp"
*.host0.app[11].destAddresses = "host2"
*.host0.app[11].source.packetNameFormat = "%M-%m-%c"
*.host0.app[11].source.displayStringTextFormat = "sent %p pk (%l)"
*.host0.app[11].messageLength = 15B
*.host0.app[11].sendInterval = 1ms
*.host0.app[11].startTime = 76ms
*.host0.app[11].stopTime = 83ms
*.host0.app[11].display-name = "type2_3"
*.host0.app[11].destPort = 1000
*.host0.app[12].typename = "UdpBasicApp"
*.host0.app[12].destAddresses = "host2"
*.host0.app[12].source.packetNameFormat = "%M-%m-%c"
*.host0.app[12].source.displayStringTextFormat = "sent %p pk (%l)"
*.host0.app[12].messageLength = 15B
*.host0.app[12].sendInterval = 1ms
*.host0.app[12].startTime = 84ms
*.host0.app[12].stopTime = 94ms
*.host0.app[12].display-name = "type2_3"
*.host0.app[12].destPort = 1000
*.host0.app[13].typename = "UdpBasicApp"
*.host0.app[13].destAddresses = "host2"
*.host0.app[13].source.packetNameFormat = "%M-%m-%c"
*.host0.app[13].source.displayStringTextFormat = "sent %p pk (%l)"
*.host0.app[13].messageLength = 15B
*.host0.app[13].sendInterval = 1ms
*.host0.app[13].startTime = 99ms
*.host0.app[13].stopTime = 100ms
*.host0.app[13].display-name = "type2_3"
*.host0.app[13].destPort = 1000
*.host1.numApps = 12
*.host1.app[0].typename = "UdpSourceApp"
*.host1.app[0].io.destAddress = "host3"
*.host1.app[0].source.packetNameFormat = "%M-%m-%c"
*.host1.app[0].source.displayStringTextFormat = "sent %p pk (%l)"
*.host1.app[0].source.packetLength = 23B
*.host1.app[0].source.productionInterval = 1ms
*.host1.app[0].display-name = "type1_0"
*.host1.app[0].io.destPort = 1000
*.host1.app[1].typename = "UdpSinkApp"
*.host1.app[1].io.localPort = 1000
*.host1.app[2].typename = "UdpBasicApp"
*.host1.app[2].destAddresses = "host0"
*.host1.app[2].source.packetNameFormat = "%M-%m-%c"
*.host1.app[2].source.displayStringTextFormat = "sent %p pk (%l)"
*.host1.app[2].messageLength = 18B
*.host1.app[2].sendInterval = 1ms
*.host1.app[2].startTime = 13ms
*.host1.app[2].stopTime = 21ms
*.host1.app[2].display-name = "type2_0"
*.host1.app[2].destPort = 1000
*.host1.app[3].typename = "UdpBasicApp"
*.host1.app[3].destAddresses = "host0"
*.host1.app[3].source.packetNameFormat = "%M-%m-%c"
*.host1.app[3].source.displayStringTextFormat = "sent %p pk (%l)"
*.host1.app[3].messageLength = 18B
*.host1.app[3].sendInterval = 1ms
*.host1.app[3].startTime = 24ms
*.host1.app[3].stopTime = 27ms
*.host1.app[3].display-name = "type2_0"
*.host1.app[3].destPort = 1000
*.host1.app[4].typename = "UdpBasicApp"
*.host1.app[4].destAddresses = "host0"
*.host1.app[4].source.packetNameFormat = "%M-%m-%c"
*.host1.app[4].source.displayStringTextFormat = "sent %p pk (%l)"
*.host1.app[4].messageLength = 18B
*.host1.app[4].sendInterval = 1ms
*.host1.app[4].startTime = 33ms
*.host1.app[4].stopTime = 36ms
*.host1.app[4].display-name = "type2_0"
*.host1.app[4].destPort = 1000
*.host1.app[5].typename = "UdpBasicApp"
*.host1.app[5].destAddresses = "host0"
*.host1.app[5].source.packetNameFormat = "%M-%m-%c"
*.host1.app[5].source.displayStringTextFormat = "sent %p pk (%l)"
*.host1.app[5].messageLength = 18B
*.host1.app[5].sendInterval = 1ms
*.host1.app[5].startTime = 56ms
*.host1.app[5].stopTime = 60ms
*.host1.app[5].display-name = "type2_0"
*.host1.app[5].destPort = 1000
*.host1.app[6].typename = "UdpBasicApp"
*.host1.app[6].destAddresses = "host0"
*.host1.app[6].source.packetNameFormat = "%M-%m-%c"
*.host1.app[6].source.displayStringTextFormat = "sent %p pk (%l)"
*.host1.app[6].messageLength = 18B
*.host1.app[6].sendInterval = 1ms
*.host1.app[6].startTime = 95ms
*.host1.app[6].stopTime = 100ms
*.host1.app[6].display-name = "type2_0"
*.host1.app[6].destPort = 1000
*.host1.app[7].typename = "UdpBasicApp"
*.host1.app[7].destAddresses = "host3"
*.host1.app[7].source.packetNameFormat = "%M-%m-%c"
*.host1.app[7].source.displayStringTextFormat = "sent %p pk (%l)"
*.host1.app[7].messageLength = 21B
*.host1.app[7].sendInterval = 1ms
*.host1.app[7].startTime = 0ms
*.host1.app[7].stopTime = 2ms
*.host1.app[7].display-name = "type2_1"
*.host1.app[7].destPort = 1001
*.host1.app[8].typename = "UdpBasicApp"
*.host1.app[8].destAddresses = "host3"
*.host1.app[8].source.packetNameFormat = "%M-%m-%c"
*.host1.app[8].source.displayStringTextFormat = "sent %p pk (%l)"
*.host1.app[8].messageLength = 21B
*.host1.app[8].sendInterval = 1ms
*.host1.app[8].startTime = 21ms
*.host1.app[8].stopTime = 22ms
*.host1.app[8].display-name = "type2_1"
*.host1.app[8].destPort = 1001
*.host1.app[9].typename = "UdpBasicApp"
*.host1.app[9].destAddresses = "host3"
*.host1.app[9].source.packetNameFormat = "%M-%m-%c"
*.host1.app[9].source.displayStringTextFormat = "sent %p pk (%l)"
*.host1.app[9].messageLength = 21B
*.host1.app[9].sendInterval = 1ms
*.host1.app[9].startTime = 32ms
*.host1.app[9].stopTime = 34ms
*.host1.app[9].display-name = "type2_1"
*.host1.app[9].destPort = 1001
*.host1.app[10].typename = "UdpBasicApp"
*.host1.app[10].destAddresses = "host3"
*.host1.app[10].source.packetNameFormat = "%M-%m-%c"
*.host1.app[10].source.displayStringTextFormat = "sent %p pk (%l)"
*.host1.app[10].messageLength = 21B
*.host1.app[10].sendInterval = 1ms
*.host1.app[10].startTime = 45ms
*.host1.app[10].stopTime = 73ms
*.host1.app[10].display-name = "type2_1"
*.host1.app[10].destPort = 1001
*.host1.app[11].typename = "UdpBasicApp"
*.host1.app[11].destAddresses = "host3"
*.host1.app[11].source.packetNameFormat = "%M-%m-%c"
*.host1.app[11].source.displayStringTextFormat = "sent %p pk (%l)"
*.host1.app[11].messageLength = 21B
*.host1.app[11].sendInterval = 1ms
*.host1.app[11].startTime = 92ms
*.host1.app[11].stopTime = 97ms
*.host1.app[11].display-name = "type2_1"
*.host1.app[11].destPort = 1001
*.host2.numApps = 2
*.host2.app[0].typename = "UdpSourceApp"
*.host2.app[0].io.destAddress = "host1"
*.host2.app[0].source.packetNameFormat = "%M-%m-%c"
*.host2.app[0].source.displayStringTextFormat = "sent %p pk (%l)"
*.host2.app[0].source.packetLength = 13B
*.host2.app[0].source.productionInterval = 1ms
*.host2.app[0].display-name = "type1_1"
*.host2.app[0].io.destPort = 1000
*.host2.app[1].typename = "UdpSinkApp"
*.host2.app[1].io.localPort = 1000
*.host3.numApps = 3
*.host3.app[0].typename = "UdpSinkApp"
*.host3.app[0].io.localPort = 1000
*.host3.app[1].typename = "UdpSinkApp"
*.host3.app[1].io.localPort = 1001
*.host3.app[2].typename = "UdpSinkApp"
*.host3.app[2].io.localPort = 1002
*.host4.numApps = 0
*.streamRedundancyConfigurator.configuration = [
	{
		name: "S1-0",
		packetFilter: "*-type1_0-*",
		source: "host1",
		destination: "host3",
		trees: [[["host1", "switch1", "switch2", "switch3", "host3"]]]
	},
	{
		name: "S1-1",
		packetFilter: "*-type1_1-*",
		source: "host2",
		destination: "host1",
		trees: [[["host2", "switch2", "switch4", "switch1", "host1"]]]
	},
	{
		name: "S2-0",
		packetFilter: "*-type2_0-*",
		source: "host1",
		destination: "host0",
		trees: [[["host1", "switch1", "switch3", "switch0", "host0"]]]
	},
	{
		name: "S2-1",
		packetFilter: "*-type2_1-*",
		source: "host1",
		destination: "host3",
		trees: [[["host1", "switch1", "switch3", "host3"]]]
	},
	{
		name: "S2-2",
		packetFilter: "*-type2_2-*",
		source: "host0",
		destination: "host3",
		trees: [[["host0", "switch0", "switch4", "switch1", "switch3", "host3"]]]
	},
	{
		name: "S2-3",
		packetFilter: "*-type2_3-*",
		source: "host0",
		destination: "host2",
		trees: [[["host0", "switch0", "switch2", "host2"]]]
	}]
	

