[General]
network = TSN_multipath
sim-time-limit = 100ms
*.macForwardingTableConfigurator.typename = ""
*.*.hasStreamRedundancy = true
*.*.bridging.streamRelay.typename = "StreamRelayLayer"
*.*.bridging.streamCoder.typename = "StreamCoderLayer"
*.streamRedundancyConfigurator.typename = "StreamRedundancyConfigurator"
*.host0.eth[0].bitrate = 1000Mbps
*.switch0.eth[0].bitrate = 1000Mbps
*.switch0.eth[1].bitrate = 2400Mbps
*.switch0.eth[2].bitrate = 2000Mbps
*.host1.eth[0].bitrate = 1000Mbps
*.switch1.eth[0].bitrate = 1000Mbps
*.switch1.eth[1].bitrate = 1700Mbps
*.switch1.eth[2].bitrate = 1400Mbps
*.host2.eth[0].bitrate = 1000Mbps
*.switch2.eth[0].bitrate = 1000Mbps
*.switch2.eth[1].bitrate = 2400Mbps
*.switch2.eth[2].bitrate = 1500Mbps
*.switch2.eth[3].bitrate = 1600Mbps
*.switch2.eth[4].bitrate = 1400Mbps
*.host3.eth[0].bitrate = 1000Mbps
*.switch3.eth[0].bitrate = 1000Mbps
*.switch3.eth[1].bitrate = 1700Mbps
*.switch3.eth[2].bitrate = 1500Mbps
*.switch3.eth[3].bitrate = 2000Mbps
*.switch3.eth[4].bitrate = 1400Mbps
*.switch3.eth[5].bitrate = 2200Mbps
*.host4.eth[0].bitrate = 1000Mbps
*.switch4.eth[0].bitrate = 1000Mbps
*.switch4.eth[1].bitrate = 1600Mbps
*.switch4.eth[2].bitrate = 2200Mbps
*.switch4.eth[3].bitrate = 1400Mbps
*.host0.numApps = 1
*.host0.app[0].typename = "UdpSourceApp"
*.host0.app[0].io.destAddress = "host4"
*.host0.app[0].source.packetNameFormat = "%M-%m-%c"
*.host0.app[0].source.displayStringTextFormat = "sent %p pk (%l)"
*.host0.app[0].source.packetLength = 19B
*.host0.app[0].source.productionInterval = 1ms
*.host0.app[0].display-name = "type1_0"
*.host0.app[0].io.destPort = 1000
*.host1.numApps = 3
*.host1.app[0].typename = "UdpSinkApp"
*.host1.app[0].io.localPort = 1000
*.host1.app[1].typename = "UdpSinkApp"
*.host1.app[1].io.localPort = 1001
*.host1.app[2].typename = "UdpSinkApp"
*.host1.app[2].io.localPort = 1002
*.host2.numApps = 7
*.host2.app[0].typename = "UdpSinkApp"
*.host2.app[0].io.localPort = 1000
*.host2.app[1].typename = "UdpBasicApp"
*.host2.app[1].destAddresses = "host1"
*.host2.app[1].source.packetNameFormat = "%M-%m-%c"
*.host2.app[1].source.displayStringTextFormat = "sent %p pk (%l)"
*.host2.app[1].messageLength = 19B
*.host2.app[1].sendInterval = 1ms
*.host2.app[1].startTime = 2ms
*.host2.app[1].stopTime = 6ms
*.host2.app[1].display-name = "type2_2"
*.host2.app[1].destPort = 1001
*.host2.app[2].typename = "UdpBasicApp"
*.host2.app[2].destAddresses = "host1"
*.host2.app[2].source.packetNameFormat = "%M-%m-%c"
*.host2.app[2].source.displayStringTextFormat = "sent %p pk (%l)"
*.host2.app[2].messageLength = 19B
*.host2.app[2].sendInterval = 1ms
*.host2.app[2].startTime = 44ms
*.host2.app[2].stopTime = 46ms
*.host2.app[2].display-name = "type2_2"
*.host2.app[2].destPort = 1001
*.host2.app[3].typename = "UdpBasicApp"
*.host2.app[3].destAddresses = "host1"
*.host2.app[3].source.packetNameFormat = "%M-%m-%c"
*.host2.app[3].source.displayStringTextFormat = "sent %p pk (%l)"
*.host2.app[3].messageLength = 19B
*.host2.app[3].sendInterval = 1ms
*.host2.app[3].startTime = 50ms
*.host2.app[3].stopTime = 59ms
*.host2.app[3].display-name = "type2_2"
*.host2.app[3].destPort = 1001
*.host2.app[4].typename = "UdpBasicApp"
*.host2.app[4].destAddresses = "host1"
*.host2.app[4].source.packetNameFormat = "%M-%m-%c"
*.host2.app[4].source.displayStringTextFormat = "sent %p pk (%l)"
*.host2.app[4].messageLength = 19B
*.host2.app[4].sendInterval = 1ms
*.host2.app[4].startTime = 62ms
*.host2.app[4].stopTime = 69ms
*.host2.app[4].display-name = "type2_2"
*.host2.app[4].destPort = 1001
*.host2.app[5].typename = "UdpBasicApp"
*.host2.app[5].destAddresses = "host1"
*.host2.app[5].source.packetNameFormat = "%M-%m-%c"
*.host2.app[5].source.displayStringTextFormat = "sent %p pk (%l)"
*.host2.app[5].messageLength = 19B
*.host2.app[5].sendInterval = 1ms
*.host2.app[5].startTime = 77ms
*.host2.app[5].stopTime = 78ms
*.host2.app[5].display-name = "type2_2"
*.host2.app[5].destPort = 1001
*.host2.app[6].typename = "UdpBasicApp"
*.host2.app[6].destAddresses = "host1"
*.host2.app[6].source.packetNameFormat = "%M-%m-%c"
*.host2.app[6].source.displayStringTextFormat = "sent %p pk (%l)"
*.host2.app[6].messageLength = 19B
*.host2.app[6].sendInterval = 1ms
*.host2.app[6].startTime = 81ms
*.host2.app[6].stopTime = 91ms
*.host2.app[6].display-name = "type2_2"
*.host2.app[6].destPort = 1001
*.host3.numApps = 15
*.host3.app[0].typename = "UdpSourceApp"
*.host3.app[0].io.destAddress = "host2"
*.host3.app[0].source.packetNameFormat = "%M-%m-%c"
*.host3.app[0].source.displayStringTextFormat = "sent %p pk (%l)"
*.host3.app[0].source.packetLength = 13B
*.host3.app[0].source.productionInterval = 1ms
*.host3.app[0].display-name = "type1_1"
*.host3.app[0].io.destPort = 1000
*.host3.app[1].typename = "UdpBasicApp"
*.host3.app[1].destAddresses = "host4"
*.host3.app[1].source.packetNameFormat = "%M-%m-%c"
*.host3.app[1].source.displayStringTextFormat = "sent %p pk (%l)"
*.host3.app[1].messageLength = 23B
*.host3.app[1].sendInterval = 1ms
*.host3.app[1].startTime = 0ms
*.host3.app[1].stopTime = 11ms
*.host3.app[1].display-name = "type2_0"
*.host3.app[1].destPort = 1001
*.host3.app[2].typename = "UdpBasicApp"
*.host3.app[2].destAddresses = "host4"
*.host3.app[2].source.packetNameFormat = "%M-%m-%c"
*.host3.app[2].source.displayStringTextFormat = "sent %p pk (%l)"
*.host3.app[2].messageLength = 23B
*.host3.app[2].sendInterval = 1ms
*.host3.app[2].startTime = 20ms
*.host3.app[2].stopTime = 29ms
*.host3.app[2].display-name = "type2_0"
*.host3.app[2].destPort = 1001
*.host3.app[3].typename = "UdpBasicApp"
*.host3.app[3].destAddresses = "host4"
*.host3.app[3].source.packetNameFormat = "%M-%m-%c"
*.host3.app[3].source.displayStringTextFormat = "sent %p pk (%l)"
*.host3.app[3].messageLength = 23B
*.host3.app[3].sendInterval = 1ms
*.host3.app[3].startTime = 34ms
*.host3.app[3].stopTime = 36ms
*.host3.app[3].display-name = "type2_0"
*.host3.app[3].destPort = 1001
*.host3.app[4].typename = "UdpBasicApp"
*.host3.app[4].destAddresses = "host4"
*.host3.app[4].source.packetNameFormat = "%M-%m-%c"
*.host3.app[4].source.displayStringTextFormat = "sent %p pk (%l)"
*.host3.app[4].messageLength = 23B
*.host3.app[4].sendInterval = 1ms
*.host3.app[4].startTime = 46ms
*.host3.app[4].stopTime = 55ms
*.host3.app[4].display-name = "type2_0"
*.host3.app[4].destPort = 1001
*.host3.app[5].typename = "UdpBasicApp"
*.host3.app[5].destAddresses = "host4"
*.host3.app[5].source.packetNameFormat = "%M-%m-%c"
*.host3.app[5].source.displayStringTextFormat = "sent %p pk (%l)"
*.host3.app[5].messageLength = 23B
*.host3.app[5].sendInterval = 1ms
*.host3.app[5].startTime = 70ms
*.host3.app[5].stopTime = 72ms
*.host3.app[5].display-name = "type2_0"
*.host3.app[5].destPort = 1001
*.host3.app[6].typename = "UdpBasicApp"
*.host3.app[6].destAddresses = "host4"
*.host3.app[6].source.packetNameFormat = "%M-%m-%c"
*.host3.app[6].source.displayStringTextFormat = "sent %p pk (%l)"
*.host3.app[6].messageLength = 23B
*.host3.app[6].sendInterval = 1ms
*.host3.app[6].startTime = 77ms
*.host3.app[6].stopTime = 100ms
*.host3.app[6].display-name = "type2_0"
*.host3.app[6].destPort = 1001
*.host3.app[7].typename = "UdpBasicApp"
*.host3.app[7].destAddresses = "host1"
*.host3.app[7].source.packetNameFormat = "%M-%m-%c"
*.host3.app[7].source.displayStringTextFormat = "sent %p pk (%l)"
*.host3.app[7].messageLength = 15B
*.host3.app[7].sendInterval = 1ms
*.host3.app[7].startTime = 1ms
*.host3.app[7].stopTime = 38ms
*.host3.app[7].display-name = "type2_3"
*.host3.app[7].destPort = 1002
*.host3.app[8].typename = "UdpBasicApp"
*.host3.app[8].destAddresses = "host1"
*.host3.app[8].source.packetNameFormat = "%M-%m-%c"
*.host3.app[8].source.displayStringTextFormat = "sent %p pk (%l)"
*.host3.app[8].messageLength = 15B
*.host3.app[8].sendInterval = 1ms
*.host3.app[8].startTime = 46ms
*.host3.app[8].stopTime = 47ms
*.host3.app[8].display-name = "type2_3"
*.host3.app[8].destPort = 1002
*.host3.app[9].typename = "UdpBasicApp"
*.host3.app[9].destAddresses = "host1"
*.host3.app[9].source.packetNameFormat = "%M-%m-%c"
*.host3.app[9].source.displayStringTextFormat = "sent %p pk (%l)"
*.host3.app[9].messageLength = 15B
*.host3.app[9].sendInterval = 1ms
*.host3.app[9].startTime = 59ms
*.host3.app[9].stopTime = 60ms
*.host3.app[9].display-name = "type2_3"
*.host3.app[9].destPort = 1002
*.host3.app[10].typename = "UdpBasicApp"
*.host3.app[10].destAddresses = "host1"
*.host3.app[10].source.packetNameFormat = "%M-%m-%c"
*.host3.app[10].source.displayStringTextFormat = "sent %p pk (%l)"
*.host3.app[10].messageLength = 15B
*.host3.app[10].sendInterval = 1ms
*.host3.app[10].startTime = 62ms
*.host3.app[10].stopTime = 67ms
*.host3.app[10].display-name = "type2_3"
*.host3.app[10].destPort = 1002
*.host3.app[11].typename = "UdpBasicApp"
*.host3.app[11].destAddresses = "host1"
*.host3.app[11].source.packetNameFormat = "%M-%m-%c"
*.host3.app[11].source.displayStringTextFormat = "sent %p pk (%l)"
*.host3.app[11].messageLength = 15B
*.host3.app[11].sendInterval = 1ms
*.host3.app[11].startTime = 73ms
*.host3.app[11].stopTime = 74ms
*.host3.app[11].display-name = "type2_3"
*.host3.app[11].destPort = 1002
*.host3.app[12].typename = "UdpBasicApp"
*.host3.app[12].destAddresses = "host1"
*.host3.app[12].source.packetNameFormat = "%M-%m-%c"
*.host3.app[12].source.displayStringTextFormat = "sent %p pk (%l)"
*.host3.app[12].messageLength = 15B
*.host3.app[12].sendInterval = 1ms
*.host3.app[12].startTime = 75ms
*.host3.app[12].stopTime = 85ms
*.host3.app[12].display-name = "type2_3"
*.host3.app[12].destPort = 1002
*.host3.app[13].typename = "UdpBasicApp"
*.host3.app[13].destAddresses = "host1"
*.host3.app[13].source.packetNameFormat = "%M-%m-%c"
*.host3.app[13].source.displayStringTextFormat = "sent %p pk (%l)"
*.host3.app[13].messageLength = 15B
*.host3.app[13].sendInterval = 1ms
*.host3.app[13].startTime = 86ms
*.host3.app[13].stopTime = 93ms
*.host3.app[13].display-name = "type2_3"
*.host3.app[13].destPort = 1002
*.host3.app[14].typename = "UdpBasicApp"
*.host3.app[14].destAddresses = "host1"
*.host3.app[14].source.packetNameFormat = "%M-%m-%c"
*.host3.app[14].source.displayStringTextFormat = "sent %p pk (%l)"
*.host3.app[14].messageLength = 15B
*.host3.app[14].sendInterval = 1ms
*.host3.app[14].startTime = 97ms
*.host3.app[14].stopTime = 100ms
*.host3.app[14].display-name = "type2_3"
*.host3.app[14].destPort = 1002
*.host4.numApps = 7
*.host4.app[0].typename = "UdpSinkApp"
*.host4.app[0].io.localPort = 1000
*.host4.app[1].typename = "UdpSinkApp"
*.host4.app[1].io.localPort = 1001
*.host4.app[2].typename = "UdpBasicApp"
*.host4.app[2].destAddresses = "host1"
*.host4.app[2].source.packetNameFormat = "%M-%m-%c"
*.host4.app[2].source.displayStringTextFormat = "sent %p pk (%l)"
*.host4.app[2].messageLength = 22B
*.host4.app[2].sendInterval = 1ms
*.host4.app[2].startTime = 1ms
*.host4.app[2].stopTime = 2ms
*.host4.app[2].display-name = "type2_1"
*.host4.app[2].destPort = 1000
*.host4.app[3].typename = "UdpBasicApp"
*.host4.app[3].destAddresses = "host1"
*.host4.app[3].source.packetNameFormat = "%M-%m-%c"
*.host4.app[3].source.displayStringTextFormat = "sent %p pk (%l)"
*.host4.app[3].messageLength = 22B
*.host4.app[3].sendInterval = 1ms
*.host4.app[3].startTime = 6ms
*.host4.app[3].stopTime = 25ms
*.host4.app[3].display-name = "type2_1"
*.host4.app[3].destPort = 1000
*.host4.app[4].typename = "UdpBasicApp"
*.host4.app[4].destAddresses = "host1"
*.host4.app[4].source.packetNameFormat = "%M-%m-%c"
*.host4.app[4].source.displayStringTextFormat = "sent %p pk (%l)"
*.host4.app[4].messageLength = 22B
*.host4.app[4].sendInterval = 1ms
*.host4.app[4].startTime = 27ms
*.host4.app[4].stopTime = 33ms
*.host4.app[4].display-name = "type2_1"
*.host4.app[4].destPort = 1000
*.host4.app[5].typename = "UdpBasicApp"
*.host4.app[5].destAddresses = "host1"
*.host4.app[5].source.packetNameFormat = "%M-%m-%c"
*.host4.app[5].source.displayStringTextFormat = "sent %p pk (%l)"
*.host4.app[5].messageLength = 22B
*.host4.app[5].sendInterval = 1ms
*.host4.app[5].startTime = 35ms
*.host4.app[5].stopTime = 62ms
*.host4.app[5].display-name = "type2_1"
*.host4.app[5].destPort = 1000
*.host4.app[6].typename = "UdpBasicApp"
*.host4.app[6].destAddresses = "host1"
*.host4.app[6].source.packetNameFormat = "%M-%m-%c"
*.host4.app[6].source.displayStringTextFormat = "sent %p pk (%l)"
*.host4.app[6].messageLength = 22B
*.host4.app[6].sendInterval = 1ms
*.host4.app[6].startTime = 74ms
*.host4.app[6].stopTime = 83ms
*.host4.app[6].display-name = "type2_1"
*.host4.app[6].destPort = 1000
*.streamRedundancyConfigurator.configuration = [
	{
		name: "S1-0",
		packetFilter: "*-type1_0-*",
		source: "host0",
		destination: "host4",
		trees: [[["host0", "switch0", "switch2", "switch4", "host4"]]]
	},
	{
		name: "S1-1",
		packetFilter: "*-type1_1-*",
		source: "host3",
		destination: "host2",
		trees: [[["host3", "switch3", "switch0", "switch2", "host2"]]]
	},
	{
		name: "S2-0",
		packetFilter: "*-type2_0-*",
		source: "host3",
		destination: "host4",
		trees: [[["host3", "switch3", "switch0", "switch2", "switch4", "host4"]]]
	},
	{
		name: "S2-1",
		packetFilter: "*-type2_1-*",
		source: "host4",
		destination: "host1",
		trees: [[["host4", "switch4", "switch1", "host1"]]]
	},
	{
		name: "S2-2",
		packetFilter: "*-type2_2-*",
		source: "host2",
		destination: "host1",
		trees: [[["host2", "switch2", "switch4", "switch1", "host1"]]]
	},
	{
		name: "S2-3",
		packetFilter: "*-type2_3-*",
		source: "host3",
		destination: "host1",
		trees: [[["host3", "switch3", "switch0", "switch2", "switch4", "switch1", "host1"]]]
	}]
	

