[General]
network = TSN_multipath
sim-time-limit = 10ms
*.macForwardingTableConfigurator.typename = ""
*.*.hasStreamRedundancy = true
*.*.bridging.streamRelay.typename = "StreamRelayLayer"
*.*.bridging.streamCoder.typename = "StreamCoderLayer"
*.streamRedundancyConfigurator.typename = "StreamRedundancyConfigurator"
*.host0.eth[0].bitrate = 1000Mbps
*.switch0.eth[0].bitrate = 1000Mbps
*.switch0.eth[1].bitrate = 1500Mbps
*.switch0.eth[2].bitrate = 1700Mbps
*.switch0.eth[3].bitrate = 2000Mbps
*.switch0.eth[4].bitrate = 2100Mbps
*.switch0.eth[5].bitrate = 2100Mbps
*.switch0.eth[6].bitrate = 2400Mbps
*.switch0.eth[7].bitrate = 1800Mbps
*.switch0.eth[8].bitrate = 1300Mbps
*.switch0.eth[9].bitrate = 1700Mbps
*.host1.eth[0].bitrate = 1000Mbps
*.switch1.eth[0].bitrate = 1000Mbps
*.switch1.eth[1].bitrate = 1300Mbps
*.switch1.eth[2].bitrate = 2200Mbps
*.switch1.eth[3].bitrate = 1300Mbps
*.switch1.eth[4].bitrate = 1700Mbps
*.switch1.eth[5].bitrate = 2000Mbps
*.switch1.eth[6].bitrate = 1700Mbps
*.switch1.eth[7].bitrate = 1600Mbps
*.switch1.eth[8].bitrate = 2300Mbps
*.host2.eth[0].bitrate = 1000Mbps
*.switch2.eth[0].bitrate = 1000Mbps
*.switch2.eth[1].bitrate = 1500Mbps
*.switch2.eth[2].bitrate = 2200Mbps
*.switch2.eth[3].bitrate = 2100Mbps
*.switch2.eth[4].bitrate = 2100Mbps
*.host3.eth[0].bitrate = 1000Mbps
*.switch3.eth[0].bitrate = 1000Mbps
*.switch3.eth[1].bitrate = 1300Mbps
*.switch3.eth[2].bitrate = 1400Mbps
*.switch3.eth[3].bitrate = 2400Mbps
*.switch3.eth[4].bitrate = 1900Mbps
*.switch3.eth[5].bitrate = 2000Mbps
*.host4.eth[0].bitrate = 1000Mbps
*.switch4.eth[0].bitrate = 1000Mbps
*.switch4.eth[1].bitrate = 1700Mbps
*.switch4.eth[2].bitrate = 2100Mbps
*.switch4.eth[3].bitrate = 1200Mbps
*.switch4.eth[4].bitrate = 2200Mbps
*.switch4.eth[5].bitrate = 2200Mbps
*.switch4.eth[6].bitrate = 2000Mbps
*.switch4.eth[7].bitrate = 1600Mbps
*.host5.eth[0].bitrate = 1000Mbps
*.switch5.eth[0].bitrate = 1000Mbps
*.switch5.eth[1].bitrate = 2000Mbps
*.switch5.eth[2].bitrate = 1700Mbps
*.switch5.eth[3].bitrate = 1600Mbps
*.switch5.eth[4].bitrate = 2100Mbps
*.switch5.eth[5].bitrate = 1900Mbps
*.switch5.eth[6].bitrate = 2200Mbps
*.switch5.eth[7].bitrate = 1200Mbps
*.switch5.eth[8].bitrate = 1800Mbps
*.switch5.eth[9].bitrate = 2300Mbps
*.host6.eth[0].bitrate = 1000Mbps
*.switch6.eth[0].bitrate = 1000Mbps
*.switch6.eth[1].bitrate = 2100Mbps
*.switch6.eth[2].bitrate = 2000Mbps
*.switch6.eth[3].bitrate = 1700Mbps
*.switch6.eth[4].bitrate = 2300Mbps
*.switch6.eth[5].bitrate = 2000Mbps
*.switch6.eth[6].bitrate = 2200Mbps
*.switch6.eth[7].bitrate = 1600Mbps
*.switch6.eth[8].bitrate = 1600Mbps
*.switch6.eth[9].bitrate = 2200Mbps
*.switch6.eth[10].bitrate = 1700Mbps
*.host7.eth[0].bitrate = 1000Mbps
*.switch7.eth[0].bitrate = 1000Mbps
*.switch7.eth[1].bitrate = 2100Mbps
*.switch7.eth[2].bitrate = 1700Mbps
*.switch7.eth[3].bitrate = 2000Mbps
*.switch7.eth[4].bitrate = 2300Mbps
*.switch7.eth[5].bitrate = 1600Mbps
*.switch7.eth[6].bitrate = 1500Mbps
*.switch7.eth[7].bitrate = 1300Mbps
*.switch7.eth[8].bitrate = 1300Mbps
*.host8.eth[0].bitrate = 1000Mbps
*.switch8.eth[0].bitrate = 1000Mbps
*.switch8.eth[1].bitrate = 2400Mbps
*.switch8.eth[2].bitrate = 1400Mbps
*.switch8.eth[3].bitrate = 1200Mbps
*.switch8.eth[4].bitrate = 2200Mbps
*.switch8.eth[5].bitrate = 1300Mbps
*.switch8.eth[6].bitrate = 1500Mbps
*.host9.eth[0].bitrate = 1000Mbps
*.switch9.eth[0].bitrate = 1000Mbps
*.switch9.eth[1].bitrate = 1800Mbps
*.switch9.eth[2].bitrate = 2400Mbps
*.switch9.eth[3].bitrate = 1200Mbps
*.switch9.eth[4].bitrate = 1800Mbps
*.switch9.eth[5].bitrate = 1600Mbps
*.switch9.eth[6].bitrate = 1500Mbps
*.switch9.eth[7].bitrate = 1600Mbps
*.switch9.eth[8].bitrate = 1700Mbps
*.switch9.eth[9].bitrate = 1300Mbps
*.switch9.eth[10].bitrate = 1500Mbps
*.host0.numApps = 1
*.host0.app[0].typename = "UdpSinkApp"
*.host0.app[0].io.localPort = 1000
*.host1.numApps = 11
*.host1.app[0].typename = "UdpSourceApp"
*.host1.app[0].io.destAddress = "host4"
*.host1.app[0].source.packetNameFormat = "%M-%m-%c"
*.host1.app[0].source.displayStringTextFormat = "sent %p pk (%l)"
*.host1.app[0].source.packetLength = 20B
*.host1.app[0].source.productionInterval = 1ms
*.host1.app[0].display-name = "type1_2"
*.host1.app[0].io.destPort = 1000
*.host1.app[1].typename = "UdpBasicApp"
*.host1.app[1].destAddresses = "host8"
*.host1.app[1].source.packetNameFormat = "%M-%m-%c"
*.host1.app[1].source.displayStringTextFormat = "sent %p pk (%l)"
*.host1.app[1].messageLength = 14B
*.host1.app[1].sendInterval = 1ms
*.host1.app[1].startTime = 500us
*.host1.app[1].stopTime = 800us
*.host1.app[1].display-name = "type2_3"
*.host1.app[1].destPort = 1001
*.host1.app[2].typename = "UdpBasicApp"
*.host1.app[2].destAddresses = "host8"
*.host1.app[2].source.packetNameFormat = "%M-%m-%c"
*.host1.app[2].source.displayStringTextFormat = "sent %p pk (%l)"
*.host1.app[2].messageLength = 14B
*.host1.app[2].sendInterval = 1ms
*.host1.app[2].startTime = 1800us
*.host1.app[2].stopTime = 2200us
*.host1.app[2].display-name = "type2_3"
*.host1.app[2].destPort = 1001
*.host1.app[3].typename = "UdpBasicApp"
*.host1.app[3].destAddresses = "host8"
*.host1.app[3].source.packetNameFormat = "%M-%m-%c"
*.host1.app[3].source.displayStringTextFormat = "sent %p pk (%l)"
*.host1.app[3].messageLength = 14B
*.host1.app[3].sendInterval = 1ms
*.host1.app[3].startTime = 2500us
*.host1.app[3].stopTime = 3300us
*.host1.app[3].display-name = "type2_3"
*.host1.app[3].destPort = 1001
*.host1.app[4].typename = "UdpBasicApp"
*.host1.app[4].destAddresses = "host8"
*.host1.app[4].source.packetNameFormat = "%M-%m-%c"
*.host1.app[4].source.displayStringTextFormat = "sent %p pk (%l)"
*.host1.app[4].messageLength = 14B
*.host1.app[4].sendInterval = 1ms
*.host1.app[4].startTime = 3600us
*.host1.app[4].stopTime = 4000us
*.host1.app[4].display-name = "type2_3"
*.host1.app[4].destPort = 1001
*.host1.app[5].typename = "UdpBasicApp"
*.host1.app[5].destAddresses = "host8"
*.host1.app[5].source.packetNameFormat = "%M-%m-%c"
*.host1.app[5].source.displayStringTextFormat = "sent %p pk (%l)"
*.host1.app[5].messageLength = 14B
*.host1.app[5].sendInterval = 1ms
*.host1.app[5].startTime = 4200us
*.host1.app[5].stopTime = 5600us
*.host1.app[5].display-name = "type2_3"
*.host1.app[5].destPort = 1001
*.host1.app[6].typename = "UdpBasicApp"
*.host1.app[6].destAddresses = "host8"
*.host1.app[6].source.packetNameFormat = "%M-%m-%c"
*.host1.app[6].source.displayStringTextFormat = "sent %p pk (%l)"
*.host1.app[6].messageLength = 14B
*.host1.app[6].sendInterval = 1ms
*.host1.app[6].startTime = 6700us
*.host1.app[6].stopTime = 7400us
*.host1.app[6].display-name = "type2_3"
*.host1.app[6].destPort = 1001
*.host1.app[7].typename = "UdpBasicApp"
*.host1.app[7].destAddresses = "host8"
*.host1.app[7].source.packetNameFormat = "%M-%m-%c"
*.host1.app[7].source.displayStringTextFormat = "sent %p pk (%l)"
*.host1.app[7].messageLength = 14B
*.host1.app[7].sendInterval = 1ms
*.host1.app[7].startTime = 8000us
*.host1.app[7].stopTime = 8100us
*.host1.app[7].display-name = "type2_3"
*.host1.app[7].destPort = 1001
*.host1.app[8].typename = "UdpBasicApp"
*.host1.app[8].destAddresses = "host8"
*.host1.app[8].source.packetNameFormat = "%M-%m-%c"
*.host1.app[8].source.displayStringTextFormat = "sent %p pk (%l)"
*.host1.app[8].messageLength = 14B
*.host1.app[8].sendInterval = 1ms
*.host1.app[8].startTime = 9200us
*.host1.app[8].stopTime = 9500us
*.host1.app[8].display-name = "type2_3"
*.host1.app[8].destPort = 1001
*.host1.app[9].typename = "UdpBasicApp"
*.host1.app[9].destAddresses = "host8"
*.host1.app[9].source.packetNameFormat = "%M-%m-%c"
*.host1.app[9].source.displayStringTextFormat = "sent %p pk (%l)"
*.host1.app[9].messageLength = 14B
*.host1.app[9].sendInterval = 1ms
*.host1.app[9].startTime = 9700us
*.host1.app[9].stopTime = 10000us
*.host1.app[9].display-name = "type2_3"
*.host1.app[9].destPort = 1001
*.host1.app[10].typename = "UdpSinkApp"
*.host1.app[10].io.localPort = 1000
*.host2.numApps = 0
*.host3.numApps = 2
*.host3.app[0].typename = "UdpSinkApp"
*.host3.app[0].io.localPort = 1000
*.host3.app[1].typename = "UdpSinkApp"
*.host3.app[1].io.localPort = 1001
*.host4.numApps = 1
*.host4.app[0].typename = "UdpSinkApp"
*.host4.app[0].io.localPort = 1000
*.host5.numApps = 12
*.host5.app[0].typename = "UdpSourceApp"
*.host5.app[0].io.destAddress = "host0"
*.host5.app[0].source.packetNameFormat = "%M-%m-%c"
*.host5.app[0].source.displayStringTextFormat = "sent %p pk (%l)"
*.host5.app[0].source.packetLength = 21B
*.host5.app[0].source.productionInterval = 1ms
*.host5.app[0].display-name = "type1_1"
*.host5.app[0].io.destPort = 1000
*.host5.app[1].typename = "UdpBasicApp"
*.host5.app[1].destAddresses = "host3"
*.host5.app[1].source.packetNameFormat = "%M-%m-%c"
*.host5.app[1].source.displayStringTextFormat = "sent %p pk (%l)"
*.host5.app[1].messageLength = 18B
*.host5.app[1].sendInterval = 1ms
*.host5.app[1].startTime = 600us
*.host5.app[1].stopTime = 2500us
*.host5.app[1].display-name = "type2_0"
*.host5.app[1].destPort = 1000
*.host5.app[2].typename = "UdpBasicApp"
*.host5.app[2].destAddresses = "host3"
*.host5.app[2].source.packetNameFormat = "%M-%m-%c"
*.host5.app[2].source.displayStringTextFormat = "sent %p pk (%l)"
*.host5.app[2].messageLength = 18B
*.host5.app[2].sendInterval = 1ms
*.host5.app[2].startTime = 3100us
*.host5.app[2].stopTime = 3600us
*.host5.app[2].display-name = "type2_0"
*.host5.app[2].destPort = 1000
*.host5.app[3].typename = "UdpBasicApp"
*.host5.app[3].destAddresses = "host3"
*.host5.app[3].source.packetNameFormat = "%M-%m-%c"
*.host5.app[3].source.displayStringTextFormat = "sent %p pk (%l)"
*.host5.app[3].messageLength = 18B
*.host5.app[3].sendInterval = 1ms
*.host5.app[3].startTime = 4300us
*.host5.app[3].stopTime = 7300us
*.host5.app[3].display-name = "type2_0"
*.host5.app[3].destPort = 1000
*.host5.app[4].typename = "UdpBasicApp"
*.host5.app[4].destAddresses = "host3"
*.host5.app[4].source.packetNameFormat = "%M-%m-%c"
*.host5.app[4].source.displayStringTextFormat = "sent %p pk (%l)"
*.host5.app[4].messageLength = 18B
*.host5.app[4].sendInterval = 1ms
*.host5.app[4].startTime = 7800us
*.host5.app[4].stopTime = 8100us
*.host5.app[4].display-name = "type2_0"
*.host5.app[4].destPort = 1000
*.host5.app[5].typename = "UdpBasicApp"
*.host5.app[5].destAddresses = "host3"
*.host5.app[5].source.packetNameFormat = "%M-%m-%c"
*.host5.app[5].source.displayStringTextFormat = "sent %p pk (%l)"
*.host5.app[5].messageLength = 18B
*.host5.app[5].sendInterval = 1ms
*.host5.app[5].startTime = 8400us
*.host5.app[5].stopTime = 8700us
*.host5.app[5].display-name = "type2_0"
*.host5.app[5].destPort = 1000
*.host5.app[6].typename = "UdpBasicApp"
*.host5.app[6].destAddresses = "host3"
*.host5.app[6].source.packetNameFormat = "%M-%m-%c"
*.host5.app[6].source.displayStringTextFormat = "sent %p pk (%l)"
*.host5.app[6].messageLength = 18B
*.host5.app[6].sendInterval = 1ms
*.host5.app[6].startTime = 9600us
*.host5.app[6].stopTime = 9900us
*.host5.app[6].display-name = "type2_0"
*.host5.app[6].destPort = 1000
*.host5.app[7].typename = "UdpBasicApp"
*.host5.app[7].destAddresses = "host8"
*.host5.app[7].source.packetNameFormat = "%M-%m-%c"
*.host5.app[7].source.displayStringTextFormat = "sent %p pk (%l)"
*.host5.app[7].messageLength = 16B
*.host5.app[7].sendInterval = 1ms
*.host5.app[7].startTime = 2400us
*.host5.app[7].stopTime = 3400us
*.host5.app[7].display-name = "type2_4"
*.host5.app[7].destPort = 1002
*.host5.app[8].typename = "UdpBasicApp"
*.host5.app[8].destAddresses = "host8"
*.host5.app[8].source.packetNameFormat = "%M-%m-%c"
*.host5.app[8].source.displayStringTextFormat = "sent %p pk (%l)"
*.host5.app[8].messageLength = 16B
*.host5.app[8].sendInterval = 1ms
*.host5.app[8].startTime = 5200us
*.host5.app[8].stopTime = 5500us
*.host5.app[8].display-name = "type2_4"
*.host5.app[8].destPort = 1002
*.host5.app[9].typename = "UdpBasicApp"
*.host5.app[9].destAddresses = "host8"
*.host5.app[9].source.packetNameFormat = "%M-%m-%c"
*.host5.app[9].source.displayStringTextFormat = "sent %p pk (%l)"
*.host5.app[9].messageLength = 16B
*.host5.app[9].sendInterval = 1ms
*.host5.app[9].startTime = 5600us
*.host5.app[9].stopTime = 7400us
*.host5.app[9].display-name = "type2_4"
*.host5.app[9].destPort = 1002
*.host5.app[10].typename = "UdpBasicApp"
*.host5.app[10].destAddresses = "host8"
*.host5.app[10].source.packetNameFormat = "%M-%m-%c"
*.host5.app[10].source.displayStringTextFormat = "sent %p pk (%l)"
*.host5.app[10].messageLength = 16B
*.host5.app[10].sendInterval = 1ms
*.host5.app[10].startTime = 7800us
*.host5.app[10].stopTime = 8100us
*.host5.app[10].display-name = "type2_4"
*.host5.app[10].destPort = 1002
*.host5.app[11].typename = "UdpBasicApp"
*.host5.app[11].destAddresses = "host8"
*.host5.app[11].source.packetNameFormat = "%M-%m-%c"
*.host5.app[11].source.displayStringTextFormat = "sent %p pk (%l)"
*.host5.app[11].messageLength = 16B
*.host5.app[11].sendInterval = 1ms
*.host5.app[11].startTime = 9200us
*.host5.app[11].stopTime = 9600us
*.host5.app[11].display-name = "type2_4"
*.host5.app[11].destPort = 1002
*.host6.numApps = 8
*.host6.app[0].typename = "UdpBasicApp"
*.host6.app[0].destAddresses = "host7"
*.host6.app[0].source.packetNameFormat = "%M-%m-%c"
*.host6.app[0].source.displayStringTextFormat = "sent %p pk (%l)"
*.host6.app[0].messageLength = 24B
*.host6.app[0].sendInterval = 1ms
*.host6.app[0].startTime = 600us
*.host6.app[0].stopTime = 1600us
*.host6.app[0].display-name = "type2_1"
*.host6.app[0].destPort = 1000
*.host6.app[1].typename = "UdpBasicApp"
*.host6.app[1].destAddresses = "host7"
*.host6.app[1].source.packetNameFormat = "%M-%m-%c"
*.host6.app[1].source.displayStringTextFormat = "sent %p pk (%l)"
*.host6.app[1].messageLength = 24B
*.host6.app[1].sendInterval = 1ms
*.host6.app[1].startTime = 1800us
*.host6.app[1].stopTime = 4200us
*.host6.app[1].display-name = "type2_1"
*.host6.app[1].destPort = 1000
*.host6.app[2].typename = "UdpBasicApp"
*.host6.app[2].destAddresses = "host7"
*.host6.app[2].source.packetNameFormat = "%M-%m-%c"
*.host6.app[2].source.displayStringTextFormat = "sent %p pk (%l)"
*.host6.app[2].messageLength = 24B
*.host6.app[2].sendInterval = 1ms
*.host6.app[2].startTime = 5500us
*.host6.app[2].stopTime = 7300us
*.host6.app[2].display-name = "type2_1"
*.host6.app[2].destPort = 1000
*.host6.app[3].typename = "UdpBasicApp"
*.host6.app[3].destAddresses = "host7"
*.host6.app[3].source.packetNameFormat = "%M-%m-%c"
*.host6.app[3].source.displayStringTextFormat = "sent %p pk (%l)"
*.host6.app[3].messageLength = 24B
*.host6.app[3].sendInterval = 1ms
*.host6.app[3].startTime = 8300us
*.host6.app[3].stopTime = 10000us
*.host6.app[3].display-name = "type2_1"
*.host6.app[3].destPort = 1000
*.host6.app[4].typename = "UdpBasicApp"
*.host6.app[4].destAddresses = "host1"
*.host6.app[4].source.packetNameFormat = "%M-%m-%c"
*.host6.app[4].source.displayStringTextFormat = "sent %p pk (%l)"
*.host6.app[4].messageLength = 21B
*.host6.app[4].sendInterval = 1ms
*.host6.app[4].startTime = 0us
*.host6.app[4].stopTime = 1500us
*.host6.app[4].display-name = "type2_5"
*.host6.app[4].destPort = 1000
*.host6.app[5].typename = "UdpBasicApp"
*.host6.app[5].destAddresses = "host1"
*.host6.app[5].source.packetNameFormat = "%M-%m-%c"
*.host6.app[5].source.displayStringTextFormat = "sent %p pk (%l)"
*.host6.app[5].messageLength = 21B
*.host6.app[5].sendInterval = 1ms
*.host6.app[5].startTime = 2000us
*.host6.app[5].stopTime = 2300us
*.host6.app[5].display-name = "type2_5"
*.host6.app[5].destPort = 1000
*.host6.app[6].typename = "UdpBasicApp"
*.host6.app[6].destAddresses = "host1"
*.host6.app[6].source.packetNameFormat = "%M-%m-%c"
*.host6.app[6].source.displayStringTextFormat = "sent %p pk (%l)"
*.host6.app[6].messageLength = 21B
*.host6.app[6].sendInterval = 1ms
*.host6.app[6].startTime = 5200us
*.host6.app[6].stopTime = 8000us
*.host6.app[6].display-name = "type2_5"
*.host6.app[6].destPort = 1000
*.host6.app[7].typename = "UdpBasicApp"
*.host6.app[7].destAddresses = "host1"
*.host6.app[7].source.packetNameFormat = "%M-%m-%c"
*.host6.app[7].source.displayStringTextFormat = "sent %p pk (%l)"
*.host6.app[7].messageLength = 21B
*.host6.app[7].sendInterval = 1ms
*.host6.app[7].startTime = 8300us
*.host6.app[7].stopTime = 10000us
*.host6.app[7].display-name = "type2_5"
*.host6.app[7].destPort = 1000
*.host7.numApps = 1
*.host7.app[0].typename = "UdpSinkApp"
*.host7.app[0].io.localPort = 1000
*.host8.numApps = 8
*.host8.app[0].typename = "UdpSinkApp"
*.host8.app[0].io.localPort = 1000
*.host8.app[1].typename = "UdpBasicApp"
*.host8.app[1].destAddresses = "host3"
*.host8.app[1].source.packetNameFormat = "%M-%m-%c"
*.host8.app[1].source.displayStringTextFormat = "sent %p pk (%l)"
*.host8.app[1].messageLength = 20B
*.host8.app[1].sendInterval = 1ms
*.host8.app[1].startTime = 2500us
*.host8.app[1].stopTime = 3100us
*.host8.app[1].display-name = "type2_2"
*.host8.app[1].destPort = 1001
*.host8.app[2].typename = "UdpBasicApp"
*.host8.app[2].destAddresses = "host3"
*.host8.app[2].source.packetNameFormat = "%M-%m-%c"
*.host8.app[2].source.displayStringTextFormat = "sent %p pk (%l)"
*.host8.app[2].messageLength = 20B
*.host8.app[2].sendInterval = 1ms
*.host8.app[2].startTime = 4100us
*.host8.app[2].stopTime = 4800us
*.host8.app[2].display-name = "type2_2"
*.host8.app[2].destPort = 1001
*.host8.app[3].typename = "UdpBasicApp"
*.host8.app[3].destAddresses = "host3"
*.host8.app[3].source.packetNameFormat = "%M-%m-%c"
*.host8.app[3].source.displayStringTextFormat = "sent %p pk (%l)"
*.host8.app[3].messageLength = 20B
*.host8.app[3].sendInterval = 1ms
*.host8.app[3].startTime = 6100us
*.host8.app[3].stopTime = 6200us
*.host8.app[3].display-name = "type2_2"
*.host8.app[3].destPort = 1001
*.host8.app[4].typename = "UdpBasicApp"
*.host8.app[4].destAddresses = "host3"
*.host8.app[4].source.packetNameFormat = "%M-%m-%c"
*.host8.app[4].source.displayStringTextFormat = "sent %p pk (%l)"
*.host8.app[4].messageLength = 20B
*.host8.app[4].sendInterval = 1ms
*.host8.app[4].startTime = 7200us
*.host8.app[4].stopTime = 7400us
*.host8.app[4].display-name = "type2_2"
*.host8.app[4].destPort = 1001
*.host8.app[5].typename = "UdpBasicApp"
*.host8.app[5].destAddresses = "host3"
*.host8.app[5].source.packetNameFormat = "%M-%m-%c"
*.host8.app[5].source.displayStringTextFormat = "sent %p pk (%l)"
*.host8.app[5].messageLength = 20B
*.host8.app[5].sendInterval = 1ms
*.host8.app[5].startTime = 8100us
*.host8.app[5].stopTime = 10000us
*.host8.app[5].display-name = "type2_2"
*.host8.app[5].destPort = 1001
*.host8.app[6].typename = "UdpSinkApp"
*.host8.app[6].io.localPort = 1001
*.host8.app[7].typename = "UdpSinkApp"
*.host8.app[7].io.localPort = 1002
*.host9.numApps = 1
*.host9.app[0].typename = "UdpSourceApp"
*.host9.app[0].io.destAddress = "host8"
*.host9.app[0].source.packetNameFormat = "%M-%m-%c"
*.host9.app[0].source.displayStringTextFormat = "sent %p pk (%l)"
*.host9.app[0].source.packetLength = 14B
*.host9.app[0].source.productionInterval = 1ms
*.host9.app[0].display-name = "type1_0"
*.host9.app[0].io.destPort = 1000
*.streamRedundancyConfigurator.configuration = [
	{
		name: "S1-0",
		packetFilter: "*-type1_0-*",
		source: "host9",
		destination: "host8",
		trees: [[["host9", "switch9", "switch6", "switch1", "switch0", "switch8", "host8"]]]
	},
	{
		name: "S1-1",
		packetFilter: "*-type1_1-*",
		source: "host5",
		destination: "host0",
		trees: [[["host5",
	 "switch5",
	 "switch3",
	 "switch9",
	 "switch6",
	 "switch1",
	 "switch0",
	 "host0"]]]
	},
	{
		name: "S1-2",
		packetFilter: "*-type1_2-*",
		source: "host1",
		destination: "host4",
		trees: [[["host1", "switch1", "switch2", "switch4", "host4"]]]
	},
	{
		name: "S2-0",
		packetFilter: "*-type2_0-*",
		source: "host5",
		destination: "host3",
		trees: [[["host5", "switch5", "switch3", "host3"]]]
	},
	{
		name: "S2-1",
		packetFilter: "*-type2_1-*",
		source: "host6",
		destination: "host7",
		trees: [[["host6", "switch6", "switch3", "switch8", "switch7", "host7"]]]
	},
	{
		name: "S2-2",
		packetFilter: "*-type2_2-*",
		source: "host8",
		destination: "host3",
		trees: [[["host8",
	 "switch8",
	 "switch6",
	 "switch1",
	 "switch0",
	 "switch5",
	 "switch3",
	 "host3"]]]
	},
	{
		name: "S2-3",
		packetFilter: "*-type2_3-*",
		source: "host1",
		destination: "host8",
		trees: [[["host1", "switch1", "switch0", "switch5", "switch3", "switch8", "host8"]]]
	},
	{
		name: "S2-4",
		packetFilter: "*-type2_4-*",
		source: "host5",
		destination: "host8",
		trees: [[["host5", "switch5", "switch3", "switch8", "host8"]]]
	},
	{
		name: "S2-5",
		packetFilter: "*-type2_5-*",
		source: "host6",
		destination: "host1",
		trees: [[["host6", "switch6", "switch1", "host1"]]]
	}]
	

