[General]
network = TSN_multipath
sim-time-limit = 10ms
*.macForwardingTableConfigurator.typename = ""
*.*.hasStreamRedundancy = true
*.*.bridging.streamRelay.typename = "StreamRelayLayer"
*.*.bridging.streamCoder.typename = "StreamCoderLayer"
*.streamRedundancyConfigurator.typename = "StreamRedundancyConfigurator"
*.host0.eth[0].bitrate = 1000Mbps
*.switch0.eth[0].bitrate = 1000Mbps
*.switch0.eth[1].bitrate = 2000Mbps
*.switch0.eth[2].bitrate = 1200Mbps
*.switch0.eth[3].bitrate = 2100Mbps
*.switch0.eth[4].bitrate = 1800Mbps
*.switch0.eth[5].bitrate = 2200Mbps
*.switch0.eth[6].bitrate = 1200Mbps
*.switch0.eth[7].bitrate = 1200Mbps
*.switch0.eth[8].bitrate = 1500Mbps
*.switch0.eth[9].bitrate = 2000Mbps
*.switch0.eth[10].bitrate = 1800Mbps
*.switch0.eth[11].bitrate = 2300Mbps
*.switch0.eth[12].bitrate = 1300Mbps
*.host1.eth[0].bitrate = 1000Mbps
*.switch1.eth[0].bitrate = 1000Mbps
*.switch1.eth[1].bitrate = 2000Mbps
*.switch1.eth[2].bitrate = 1200Mbps
*.switch1.eth[3].bitrate = 2000Mbps
*.switch1.eth[4].bitrate = 2400Mbps
*.switch1.eth[5].bitrate = 2200Mbps
*.switch1.eth[6].bitrate = 1300Mbps
*.switch1.eth[7].bitrate = 1200Mbps
*.switch1.eth[8].bitrate = 1600Mbps
*.switch1.eth[9].bitrate = 1700Mbps
*.switch1.eth[10].bitrate = 2200Mbps
*.switch1.eth[11].bitrate = 1600Mbps
*.switch1.eth[12].bitrate = 1300Mbps
*.switch1.eth[13].bitrate = 1800Mbps
*.host2.eth[0].bitrate = 1000Mbps
*.switch2.eth[0].bitrate = 1000Mbps
*.switch2.eth[1].bitrate = 1200Mbps
*.switch2.eth[2].bitrate = 1500Mbps
*.switch2.eth[3].bitrate = 1200Mbps
*.switch2.eth[4].bitrate = 1700Mbps
*.switch2.eth[5].bitrate = 1400Mbps
*.switch2.eth[6].bitrate = 1200Mbps
*.switch2.eth[7].bitrate = 2400Mbps
*.switch2.eth[8].bitrate = 1700Mbps
*.host3.eth[0].bitrate = 1000Mbps
*.switch3.eth[0].bitrate = 1000Mbps
*.switch3.eth[1].bitrate = 2100Mbps
*.switch3.eth[2].bitrate = 2000Mbps
*.switch3.eth[3].bitrate = 1200Mbps
*.switch3.eth[4].bitrate = 2000Mbps
*.switch3.eth[5].bitrate = 2000Mbps
*.switch3.eth[6].bitrate = 1300Mbps
*.switch3.eth[7].bitrate = 2400Mbps
*.switch3.eth[8].bitrate = 1600Mbps
*.switch3.eth[9].bitrate = 2000Mbps
*.switch3.eth[10].bitrate = 1600Mbps
*.switch3.eth[11].bitrate = 2000Mbps
*.switch3.eth[12].bitrate = 1300Mbps
*.switch3.eth[13].bitrate = 1700Mbps
*.switch3.eth[14].bitrate = 2300Mbps
*.switch3.eth[15].bitrate = 2400Mbps
*.host4.eth[0].bitrate = 1000Mbps
*.switch4.eth[0].bitrate = 1000Mbps
*.switch4.eth[1].bitrate = 2400Mbps
*.switch4.eth[2].bitrate = 1700Mbps
*.switch4.eth[3].bitrate = 1200Mbps
*.switch4.eth[4].bitrate = 1600Mbps
*.switch4.eth[5].bitrate = 1700Mbps
*.switch4.eth[6].bitrate = 2300Mbps
*.switch4.eth[7].bitrate = 1500Mbps
*.switch4.eth[8].bitrate = 1600Mbps
*.switch4.eth[9].bitrate = 1700Mbps
*.host5.eth[0].bitrate = 1000Mbps
*.switch5.eth[0].bitrate = 1000Mbps
*.switch5.eth[1].bitrate = 1800Mbps
*.switch5.eth[2].bitrate = 2200Mbps
*.switch5.eth[3].bitrate = 2000Mbps
*.switch5.eth[4].bitrate = 1800Mbps
*.switch5.eth[5].bitrate = 2200Mbps
*.switch5.eth[6].bitrate = 2400Mbps
*.switch5.eth[7].bitrate = 2000Mbps
*.switch5.eth[8].bitrate = 1500Mbps
*.switch5.eth[9].bitrate = 1300Mbps
*.switch5.eth[10].bitrate = 1600Mbps
*.switch5.eth[11].bitrate = 1700Mbps
*.switch5.eth[12].bitrate = 1600Mbps
*.switch5.eth[13].bitrate = 1900Mbps
*.switch5.eth[14].bitrate = 2200Mbps
*.host6.eth[0].bitrate = 1000Mbps
*.switch6.eth[0].bitrate = 1000Mbps
*.switch6.eth[1].bitrate = 2200Mbps
*.switch6.eth[2].bitrate = 1300Mbps
*.switch6.eth[3].bitrate = 1300Mbps
*.switch6.eth[4].bitrate = 1700Mbps
*.switch6.eth[5].bitrate = 1300Mbps
*.switch6.eth[6].bitrate = 2300Mbps
*.switch6.eth[7].bitrate = 1600Mbps
*.switch6.eth[8].bitrate = 1700Mbps
*.switch6.eth[9].bitrate = 1300Mbps
*.switch6.eth[10].bitrate = 1600Mbps
*.switch6.eth[11].bitrate = 1600Mbps
*.switch6.eth[12].bitrate = 1800Mbps
*.switch6.eth[13].bitrate = 1400Mbps
*.host7.eth[0].bitrate = 1000Mbps
*.switch7.eth[0].bitrate = 1000Mbps
*.switch7.eth[1].bitrate = 1700Mbps
*.switch7.eth[2].bitrate = 2400Mbps
*.switch7.eth[3].bitrate = 1600Mbps
*.switch7.eth[4].bitrate = 1800Mbps
*.switch7.eth[5].bitrate = 1300Mbps
*.switch7.eth[6].bitrate = 1700Mbps
*.switch7.eth[7].bitrate = 2000Mbps
*.host8.eth[0].bitrate = 1000Mbps
*.switch8.eth[0].bitrate = 1000Mbps
*.switch8.eth[1].bitrate = 1200Mbps
*.switch8.eth[2].bitrate = 1600Mbps
*.switch8.eth[3].bitrate = 2300Mbps
*.switch8.eth[4].bitrate = 2000Mbps
*.switch8.eth[5].bitrate = 1300Mbps
*.switch8.eth[6].bitrate = 1800Mbps
*.switch8.eth[7].bitrate = 2300Mbps
*.switch8.eth[8].bitrate = 1700Mbps
*.switch8.eth[9].bitrate = 1900Mbps
*.switch8.eth[10].bitrate = 1400Mbps
*.host9.eth[0].bitrate = 1000Mbps
*.switch9.eth[0].bitrate = 1000Mbps
*.switch9.eth[1].bitrate = 1200Mbps
*.switch9.eth[2].bitrate = 1600Mbps
*.switch9.eth[3].bitrate = 1400Mbps
*.switch9.eth[4].bitrate = 2000Mbps
*.switch9.eth[5].bitrate = 1700Mbps
*.switch9.eth[6].bitrate = 1400Mbps
*.switch9.eth[7].bitrate = 2400Mbps
*.switch9.eth[8].bitrate = 2200Mbps
*.switch9.eth[9].bitrate = 1400Mbps
*.host0.numApps = 1
*.host0.app[0].typename = "UdpSinkApp"
*.host0.app[0].io.localPort = 1000
*.host1.numApps = 3
*.host1.app[0].typename = "UdpSinkApp"
*.host1.app[0].io.localPort = 1000
*.host1.app[1].typename = "UdpSinkApp"
*.host1.app[1].io.localPort = 1001
*.host1.app[2].typename = "UdpSinkApp"
*.host1.app[2].io.localPort = 1002
*.host2.numApps = 1
*.host2.app[0].typename = "UdpSinkApp"
*.host2.app[0].io.localPort = 1000
*.host3.numApps = 12
*.host3.app[0].typename = "UdpSinkApp"
*.host3.app[0].io.localPort = 1000
*.host3.app[1].typename = "UdpBasicApp"
*.host3.app[1].destAddresses = "host0"
*.host3.app[1].source.packetNameFormat = "%M-%m-%c"
*.host3.app[1].source.displayStringTextFormat = "sent %p pk (%l)"
*.host3.app[1].messageLength = 20B
*.host3.app[1].sendInterval = 1ms
*.host3.app[1].startTime = 200us
*.host3.app[1].stopTime = 1400us
*.host3.app[1].display-name = "type2_1"
*.host3.app[1].destPort = 1000
*.host3.app[2].typename = "UdpBasicApp"
*.host3.app[2].destAddresses = "host0"
*.host3.app[2].source.packetNameFormat = "%M-%m-%c"
*.host3.app[2].source.displayStringTextFormat = "sent %p pk (%l)"
*.host3.app[2].messageLength = 20B
*.host3.app[2].sendInterval = 1ms
*.host3.app[2].startTime = 1700us
*.host3.app[2].stopTime = 2500us
*.host3.app[2].display-name = "type2_1"
*.host3.app[2].destPort = 1000
*.host3.app[3].typename = "UdpBasicApp"
*.host3.app[3].destAddresses = "host0"
*.host3.app[3].source.packetNameFormat = "%M-%m-%c"
*.host3.app[3].source.displayStringTextFormat = "sent %p pk (%l)"
*.host3.app[3].messageLength = 20B
*.host3.app[3].sendInterval = 1ms
*.host3.app[3].startTime = 3100us
*.host3.app[3].stopTime = 4700us
*.host3.app[3].display-name = "type2_1"
*.host3.app[3].destPort = 1000
*.host3.app[4].typename = "UdpBasicApp"
*.host3.app[4].destAddresses = "host0"
*.host3.app[4].source.packetNameFormat = "%M-%m-%c"
*.host3.app[4].source.displayStringTextFormat = "sent %p pk (%l)"
*.host3.app[4].messageLength = 20B
*.host3.app[4].sendInterval = 1ms
*.host3.app[4].startTime = 4800us
*.host3.app[4].stopTime = 9000us
*.host3.app[4].display-name = "type2_1"
*.host3.app[4].destPort = 1000
*.host3.app[5].typename = "UdpBasicApp"
*.host3.app[5].destAddresses = "host0"
*.host3.app[5].source.packetNameFormat = "%M-%m-%c"
*.host3.app[5].source.displayStringTextFormat = "sent %p pk (%l)"
*.host3.app[5].messageLength = 20B
*.host3.app[5].sendInterval = 1ms
*.host3.app[5].startTime = 9300us
*.host3.app[5].stopTime = 9900us
*.host3.app[5].display-name = "type2_1"
*.host3.app[5].destPort = 1000
*.host3.app[6].typename = "UdpBasicApp"
*.host3.app[6].destAddresses = "host2"
*.host3.app[6].source.packetNameFormat = "%M-%m-%c"
*.host3.app[6].source.displayStringTextFormat = "sent %p pk (%l)"
*.host3.app[6].messageLength = 24B
*.host3.app[6].sendInterval = 1ms
*.host3.app[6].startTime = 100us
*.host3.app[6].stopTime = 200us
*.host3.app[6].display-name = "type2_3"
*.host3.app[6].destPort = 1000
*.host3.app[7].typename = "UdpBasicApp"
*.host3.app[7].destAddresses = "host2"
*.host3.app[7].source.packetNameFormat = "%M-%m-%c"
*.host3.app[7].source.displayStringTextFormat = "sent %p pk (%l)"
*.host3.app[7].messageLength = 24B
*.host3.app[7].sendInterval = 1ms
*.host3.app[7].startTime = 400us
*.host3.app[7].stopTime = 800us
*.host3.app[7].display-name = "type2_3"
*.host3.app[7].destPort = 1000
*.host3.app[8].typename = "UdpBasicApp"
*.host3.app[8].destAddresses = "host2"
*.host3.app[8].source.packetNameFormat = "%M-%m-%c"
*.host3.app[8].source.displayStringTextFormat = "sent %p pk (%l)"
*.host3.app[8].messageLength = 24B
*.host3.app[8].sendInterval = 1ms
*.host3.app[8].startTime = 1600us
*.host3.app[8].stopTime = 3300us
*.host3.app[8].display-name = "type2_3"
*.host3.app[8].destPort = 1000
*.host3.app[9].typename = "UdpBasicApp"
*.host3.app[9].destAddresses = "host2"
*.host3.app[9].source.packetNameFormat = "%M-%m-%c"
*.host3.app[9].source.displayStringTextFormat = "sent %p pk (%l)"
*.host3.app[9].messageLength = 24B
*.host3.app[9].sendInterval = 1ms
*.host3.app[9].startTime = 5700us
*.host3.app[9].stopTime = 6600us
*.host3.app[9].display-name = "type2_3"
*.host3.app[9].destPort = 1000
*.host3.app[10].typename = "UdpBasicApp"
*.host3.app[10].destAddresses = "host2"
*.host3.app[10].source.packetNameFormat = "%M-%m-%c"
*.host3.app[10].source.displayStringTextFormat = "sent %p pk (%l)"
*.host3.app[10].messageLength = 24B
*.host3.app[10].sendInterval = 1ms
*.host3.app[10].startTime = 8400us
*.host3.app[10].stopTime = 8600us
*.host3.app[10].display-name = "type2_3"
*.host3.app[10].destPort = 1000
*.host3.app[11].typename = "UdpBasicApp"
*.host3.app[11].destAddresses = "host2"
*.host3.app[11].source.packetNameFormat = "%M-%m-%c"
*.host3.app[11].source.displayStringTextFormat = "sent %p pk (%l)"
*.host3.app[11].messageLength = 24B
*.host3.app[11].sendInterval = 1ms
*.host3.app[11].startTime = 8700us
*.host3.app[11].stopTime = 9400us
*.host3.app[11].display-name = "type2_3"
*.host3.app[11].destPort = 1000
*.host4.numApps = 9
*.host4.app[0].typename = "UdpBasicApp"
*.host4.app[0].destAddresses = "host3"
*.host4.app[0].source.packetNameFormat = "%M-%m-%c"
*.host4.app[0].source.displayStringTextFormat = "sent %p pk (%l)"
*.host4.app[0].messageLength = 24B
*.host4.app[0].sendInterval = 1ms
*.host4.app[0].startTime = 100us
*.host4.app[0].stopTime = 1200us
*.host4.app[0].display-name = "type2_0"
*.host4.app[0].destPort = 1000
*.host4.app[1].typename = "UdpBasicApp"
*.host4.app[1].destAddresses = "host3"
*.host4.app[1].source.packetNameFormat = "%M-%m-%c"
*.host4.app[1].source.displayStringTextFormat = "sent %p pk (%l)"
*.host4.app[1].messageLength = 24B
*.host4.app[1].sendInterval = 1ms
*.host4.app[1].startTime = 1700us
*.host4.app[1].stopTime = 3000us
*.host4.app[1].display-name = "type2_0"
*.host4.app[1].destPort = 1000
*.host4.app[2].typename = "UdpBasicApp"
*.host4.app[2].destAddresses = "host3"
*.host4.app[2].source.packetNameFormat = "%M-%m-%c"
*.host4.app[2].source.displayStringTextFormat = "sent %p pk (%l)"
*.host4.app[2].messageLength = 24B
*.host4.app[2].sendInterval = 1ms
*.host4.app[2].startTime = 3500us
*.host4.app[2].stopTime = 4100us
*.host4.app[2].display-name = "type2_0"
*.host4.app[2].destPort = 1000
*.host4.app[3].typename = "UdpBasicApp"
*.host4.app[3].destAddresses = "host3"
*.host4.app[3].source.packetNameFormat = "%M-%m-%c"
*.host4.app[3].source.displayStringTextFormat = "sent %p pk (%l)"
*.host4.app[3].messageLength = 24B
*.host4.app[3].sendInterval = 1ms
*.host4.app[3].startTime = 4300us
*.host4.app[3].stopTime = 5200us
*.host4.app[3].display-name = "type2_0"
*.host4.app[3].destPort = 1000
*.host4.app[4].typename = "UdpBasicApp"
*.host4.app[4].destAddresses = "host3"
*.host4.app[4].source.packetNameFormat = "%M-%m-%c"
*.host4.app[4].source.displayStringTextFormat = "sent %p pk (%l)"
*.host4.app[4].messageLength = 24B
*.host4.app[4].sendInterval = 1ms
*.host4.app[4].startTime = 6200us
*.host4.app[4].stopTime = 7900us
*.host4.app[4].display-name = "type2_0"
*.host4.app[4].destPort = 1000
*.host4.app[5].typename = "UdpBasicApp"
*.host4.app[5].destAddresses = "host3"
*.host4.app[5].source.packetNameFormat = "%M-%m-%c"
*.host4.app[5].source.displayStringTextFormat = "sent %p pk (%l)"
*.host4.app[5].messageLength = 24B
*.host4.app[5].sendInterval = 1ms
*.host4.app[5].startTime = 8100us
*.host4.app[5].stopTime = 8400us
*.host4.app[5].display-name = "type2_0"
*.host4.app[5].destPort = 1000
*.host4.app[6].typename = "UdpBasicApp"
*.host4.app[6].destAddresses = "host3"
*.host4.app[6].source.packetNameFormat = "%M-%m-%c"
*.host4.app[6].source.displayStringTextFormat = "sent %p pk (%l)"
*.host4.app[6].messageLength = 24B
*.host4.app[6].sendInterval = 1ms
*.host4.app[6].startTime = 8600us
*.host4.app[6].stopTime = 9500us
*.host4.app[6].display-name = "type2_0"
*.host4.app[6].destPort = 1000
*.host4.app[7].typename = "UdpBasicApp"
*.host4.app[7].destAddresses = "host3"
*.host4.app[7].source.packetNameFormat = "%M-%m-%c"
*.host4.app[7].source.displayStringTextFormat = "sent %p pk (%l)"
*.host4.app[7].messageLength = 24B
*.host4.app[7].sendInterval = 1ms
*.host4.app[7].startTime = 9800us
*.host4.app[7].stopTime = 9900us
*.host4.app[7].display-name = "type2_0"
*.host4.app[7].destPort = 1000
*.host4.app[8].typename = "UdpSinkApp"
*.host4.app[8].io.localPort = 1000
*.host5.numApps = 6
*.host5.app[0].typename = "UdpBasicApp"
*.host5.app[0].destAddresses = "host1"
*.host5.app[0].source.packetNameFormat = "%M-%m-%c"
*.host5.app[0].source.displayStringTextFormat = "sent %p pk (%l)"
*.host5.app[0].messageLength = 13B
*.host5.app[0].sendInterval = 1ms
*.host5.app[0].startTime = 1400us
*.host5.app[0].stopTime = 1600us
*.host5.app[0].display-name = "type2_2"
*.host5.app[0].destPort = 1001
*.host5.app[1].typename = "UdpBasicApp"
*.host5.app[1].destAddresses = "host1"
*.host5.app[1].source.packetNameFormat = "%M-%m-%c"
*.host5.app[1].source.displayStringTextFormat = "sent %p pk (%l)"
*.host5.app[1].messageLength = 13B
*.host5.app[1].sendInterval = 1ms
*.host5.app[1].startTime = 3100us
*.host5.app[1].stopTime = 5100us
*.host5.app[1].display-name = "type2_2"
*.host5.app[1].destPort = 1001
*.host5.app[2].typename = "UdpBasicApp"
*.host5.app[2].destAddresses = "host1"
*.host5.app[2].source.packetNameFormat = "%M-%m-%c"
*.host5.app[2].source.displayStringTextFormat = "sent %p pk (%l)"
*.host5.app[2].messageLength = 13B
*.host5.app[2].sendInterval = 1ms
*.host5.app[2].startTime = 5700us
*.host5.app[2].stopTime = 6000us
*.host5.app[2].display-name = "type2_2"
*.host5.app[2].destPort = 1001
*.host5.app[3].typename = "UdpBasicApp"
*.host5.app[3].destAddresses = "host1"
*.host5.app[3].source.packetNameFormat = "%M-%m-%c"
*.host5.app[3].source.displayStringTextFormat = "sent %p pk (%l)"
*.host5.app[3].messageLength = 13B
*.host5.app[3].sendInterval = 1ms
*.host5.app[3].startTime = 6700us
*.host5.app[3].stopTime = 6800us
*.host5.app[3].display-name = "type2_2"
*.host5.app[3].destPort = 1001
*.host5.app[4].typename = "UdpBasicApp"
*.host5.app[4].destAddresses = "host1"
*.host5.app[4].source.packetNameFormat = "%M-%m-%c"
*.host5.app[4].source.displayStringTextFormat = "sent %p pk (%l)"
*.host5.app[4].messageLength = 13B
*.host5.app[4].sendInterval = 1ms
*.host5.app[4].startTime = 8400us
*.host5.app[4].stopTime = 8900us
*.host5.app[4].display-name = "type2_2"
*.host5.app[4].destPort = 1001
*.host5.app[5].typename = "UdpBasicApp"
*.host5.app[5].destAddresses = "host1"
*.host5.app[5].source.packetNameFormat = "%M-%m-%c"
*.host5.app[5].source.displayStringTextFormat = "sent %p pk (%l)"
*.host5.app[5].messageLength = 13B
*.host5.app[5].sendInterval = 1ms
*.host5.app[5].startTime = 9300us
*.host5.app[5].stopTime = 10000us
*.host5.app[5].display-name = "type2_2"
*.host5.app[5].destPort = 1001
*.host6.numApps = 1
*.host6.app[0].typename = "UdpSinkApp"
*.host6.app[0].io.localPort = 1000
*.host7.numApps = 6
*.host7.app[0].typename = "UdpSourceApp"
*.host7.app[0].io.destAddress = "host1"
*.host7.app[0].source.packetNameFormat = "%M-%m-%c"
*.host7.app[0].source.displayStringTextFormat = "sent %p pk (%l)"
*.host7.app[0].source.packetLength = 23B
*.host7.app[0].source.productionInterval = 1ms
*.host7.app[0].display-name = "type1_0"
*.host7.app[0].io.destPort = 1000
*.host7.app[1].typename = "UdpSourceApp"
*.host7.app[1].io.destAddress = "host9"
*.host7.app[1].source.packetNameFormat = "%M-%m-%c"
*.host7.app[1].source.displayStringTextFormat = "sent %p pk (%l)"
*.host7.app[1].source.packetLength = 22B
*.host7.app[1].source.productionInterval = 1ms
*.host7.app[1].display-name = "type1_1"
*.host7.app[1].io.destPort = 1000
*.host7.app[2].typename = "UdpSourceApp"
*.host7.app[2].io.destAddress = "host6"
*.host7.app[2].source.packetNameFormat = "%M-%m-%c"
*.host7.app[2].source.displayStringTextFormat = "sent %p pk (%l)"
*.host7.app[2].source.packetLength = 23B
*.host7.app[2].source.productionInterval = 1ms
*.host7.app[2].display-name = "type1_2"
*.host7.app[2].io.destPort = 1000
*.host7.app[3].typename = "UdpBasicApp"
*.host7.app[3].destAddresses = "host4"
*.host7.app[3].source.packetNameFormat = "%M-%m-%c"
*.host7.app[3].source.displayStringTextFormat = "sent %p pk (%l)"
*.host7.app[3].messageLength = 22B
*.host7.app[3].sendInterval = 1ms
*.host7.app[3].startTime = 1400us
*.host7.app[3].stopTime = 2800us
*.host7.app[3].display-name = "type2_4"
*.host7.app[3].destPort = 1000
*.host7.app[4].typename = "UdpBasicApp"
*.host7.app[4].destAddresses = "host4"
*.host7.app[4].source.packetNameFormat = "%M-%m-%c"
*.host7.app[4].source.displayStringTextFormat = "sent %p pk (%l)"
*.host7.app[4].messageLength = 22B
*.host7.app[4].sendInterval = 1ms
*.host7.app[4].startTime = 2900us
*.host7.app[4].stopTime = 7000us
*.host7.app[4].display-name = "type2_4"
*.host7.app[4].destPort = 1000
*.host7.app[5].typename = "UdpBasicApp"
*.host7.app[5].destAddresses = "host4"
*.host7.app[5].source.packetNameFormat = "%M-%m-%c"
*.host7.app[5].source.displayStringTextFormat = "sent %p pk (%l)"
*.host7.app[5].messageLength = 22B
*.host7.app[5].sendInterval = 1ms
*.host7.app[5].startTime = 8200us
*.host7.app[5].stopTime = 10000us
*.host7.app[5].display-name = "type2_4"
*.host7.app[5].destPort = 1000
*.host8.numApps = 6
*.host8.app[0].typename = "UdpBasicApp"
*.host8.app[0].destAddresses = "host1"
*.host8.app[0].source.packetNameFormat = "%M-%m-%c"
*.host8.app[0].source.displayStringTextFormat = "sent %p pk (%l)"
*.host8.app[0].messageLength = 20B
*.host8.app[0].sendInterval = 1ms
*.host8.app[0].startTime = 1200us
*.host8.app[0].stopTime = 1300us
*.host8.app[0].display-name = "type2_5"
*.host8.app[0].destPort = 1002
*.host8.app[1].typename = "UdpBasicApp"
*.host8.app[1].destAddresses = "host1"
*.host8.app[1].source.packetNameFormat = "%M-%m-%c"
*.host8.app[1].source.displayStringTextFormat = "sent %p pk (%l)"
*.host8.app[1].messageLength = 20B
*.host8.app[1].sendInterval = 1ms
*.host8.app[1].startTime = 1600us
*.host8.app[1].stopTime = 1700us
*.host8.app[1].display-name = "type2_5"
*.host8.app[1].destPort = 1002
*.host8.app[2].typename = "UdpBasicApp"
*.host8.app[2].destAddresses = "host1"
*.host8.app[2].source.packetNameFormat = "%M-%m-%c"
*.host8.app[2].source.displayStringTextFormat = "sent %p pk (%l)"
*.host8.app[2].messageLength = 20B
*.host8.app[2].sendInterval = 1ms
*.host8.app[2].startTime = 2100us
*.host8.app[2].stopTime = 2500us
*.host8.app[2].display-name = "type2_5"
*.host8.app[2].destPort = 1002
*.host8.app[3].typename = "UdpBasicApp"
*.host8.app[3].destAddresses = "host1"
*.host8.app[3].source.packetNameFormat = "%M-%m-%c"
*.host8.app[3].source.displayStringTextFormat = "sent %p pk (%l)"
*.host8.app[3].messageLength = 20B
*.host8.app[3].sendInterval = 1ms
*.host8.app[3].startTime = 3400us
*.host8.app[3].stopTime = 4300us
*.host8.app[3].display-name = "type2_5"
*.host8.app[3].destPort = 1002
*.host8.app[4].typename = "UdpBasicApp"
*.host8.app[4].destAddresses = "host1"
*.host8.app[4].source.packetNameFormat = "%M-%m-%c"
*.host8.app[4].source.displayStringTextFormat = "sent %p pk (%l)"
*.host8.app[4].messageLength = 20B
*.host8.app[4].sendInterval = 1ms
*.host8.app[4].startTime = 5000us
*.host8.app[4].stopTime = 5600us
*.host8.app[4].display-name = "type2_5"
*.host8.app[4].destPort = 1002
*.host8.app[5].typename = "UdpBasicApp"
*.host8.app[5].destAddresses = "host1"
*.host8.app[5].source.packetNameFormat = "%M-%m-%c"
*.host8.app[5].source.displayStringTextFormat = "sent %p pk (%l)"
*.host8.app[5].messageLength = 20B
*.host8.app[5].sendInterval = 1ms
*.host8.app[5].startTime = 7400us
*.host8.app[5].stopTime = 10000us
*.host8.app[5].display-name = "type2_5"
*.host8.app[5].destPort = 1002
*.host9.numApps = 1
*.host9.app[0].typename = "UdpSinkApp"
*.host9.app[0].io.localPort = 1000
*.streamRedundancyConfigurator.configuration = [
	{
		name: "S1-0",
		packetFilter: "*-type1_0-*",
		source: "host7",
		destination: "host1",
		trees: [[["host7", "switch7", "switch1", "host1"]]]
	},
	{
		name: "S1-1",
		packetFilter: "*-type1_1-*",
		source: "host7",
		destination: "host9",
		trees: [[["host7", "switch7", "switch3", "switch9", "host9"]]]
	},
	{
		name: "S1-2",
		packetFilter: "*-type1_2-*",
		source: "host7",
		destination: "host6",
		trees: [[["host7", "switch7", "switch3", "switch6", "host6"]]]
	},
	{
		name: "S2-0",
		packetFilter: "*-type2_0-*",
		source: "host4",
		destination: "host3",
		trees: [[["host4", "switch4", "switch1", "switch3", "host3"]]]
	},
	{
		name: "S2-1",
		packetFilter: "*-type2_1-*",
		source: "host3",
		destination: "host0",
		trees: [[["host3", "switch3", "switch0", "host0"]]]
	},
	{
		name: "S2-2",
		packetFilter: "*-type2_2-*",
		source: "host5",
		destination: "host1",
		trees: [[["host5", "switch5", "switch1", "host1"]]]
	},
	{
		name: "S2-3",
		packetFilter: "*-type2_3-*",
		source: "host3",
		destination: "host2",
		trees: [[["host3", "switch3", "switch5", "switch2", "host2"]]]
	},
	{
		name: "S2-4",
		packetFilter: "*-type2_4-*",
		source: "host7",
		destination: "host4",
		trees: [[["host7", "switch7", "switch8", "switch4", "host4"]]]
	},
	{
		name: "S2-5",
		packetFilter: "*-type2_5-*",
		source: "host8",
		destination: "host1",
		trees: [[["host8", "switch8", "switch4", "switch1", "host1"]]]
	}]
	

