[General]
network = TSN_multipath
sim-time-limit = 100ms
*.macForwardingTableConfigurator.typename = ""
*.*.hasStreamRedundancy = true
*.*.bridging.streamRelay.typename = "StreamRelayLayer"
*.*.bridging.streamCoder.typename = "StreamCoderLayer"
*.streamRedundancyConfigurator.typename = "StreamRedundancyConfigurator"
*.host0.eth[0].bitrate = 1000Mbps
*.switch0.eth[0].bitrate = 1000Mbps
*.switch0.eth[1].bitrate = 1900Mbps
*.switch0.eth[2].bitrate = 1500Mbps
*.switch0.eth[3].bitrate = 1300Mbps
*.switch0.eth[4].bitrate = 2000Mbps
*.switch0.eth[5].bitrate = 2100Mbps
*.switch0.eth[6].bitrate = 2400Mbps
*.switch0.eth[7].bitrate = 1700Mbps
*.switch0.eth[8].bitrate = 1200Mbps
*.switch0.eth[9].bitrate = 1600Mbps
*.switch0.eth[10].bitrate = 2200Mbps
*.host1.eth[0].bitrate = 1000Mbps
*.switch1.eth[0].bitrate = 1000Mbps
*.switch1.eth[1].bitrate = 1900Mbps
*.switch1.eth[2].bitrate = 1800Mbps
*.switch1.eth[3].bitrate = 1900Mbps
*.switch1.eth[4].bitrate = 2200Mbps
*.switch1.eth[5].bitrate = 1600Mbps
*.switch1.eth[6].bitrate = 2300Mbps
*.switch1.eth[7].bitrate = 1900Mbps
*.switch1.eth[8].bitrate = 2400Mbps
*.switch1.eth[9].bitrate = 2300Mbps
*.host2.eth[0].bitrate = 1000Mbps
*.switch2.eth[0].bitrate = 1000Mbps
*.switch2.eth[1].bitrate = 1400Mbps
*.switch2.eth[2].bitrate = 2400Mbps
*.switch2.eth[3].bitrate = 2300Mbps
*.switch2.eth[4].bitrate = 1900Mbps
*.switch2.eth[5].bitrate = 1700Mbps
*.switch2.eth[6].bitrate = 1600Mbps
*.switch2.eth[7].bitrate = 2300Mbps
*.switch2.eth[8].bitrate = 2400Mbps
*.switch2.eth[9].bitrate = 1500Mbps
*.host3.eth[0].bitrate = 1000Mbps
*.switch3.eth[0].bitrate = 1000Mbps
*.switch3.eth[1].bitrate = 1900Mbps
*.switch3.eth[2].bitrate = 2400Mbps
*.switch3.eth[3].bitrate = 1600Mbps
*.switch3.eth[4].bitrate = 1900Mbps
*.switch3.eth[5].bitrate = 1300Mbps
*.switch3.eth[6].bitrate = 1400Mbps
*.switch3.eth[7].bitrate = 1300Mbps
*.switch3.eth[8].bitrate = 2300Mbps
*.switch3.eth[9].bitrate = 1600Mbps
*.switch3.eth[10].bitrate = 1700Mbps
*.host4.eth[0].bitrate = 1000Mbps
*.switch4.eth[0].bitrate = 1000Mbps
*.switch4.eth[1].bitrate = 1500Mbps
*.switch4.eth[2].bitrate = 1900Mbps
*.switch4.eth[3].bitrate = 1400Mbps
*.switch4.eth[4].bitrate = 1700Mbps
*.switch4.eth[5].bitrate = 1800Mbps
*.switch4.eth[6].bitrate = 1900Mbps
*.switch4.eth[7].bitrate = 2200Mbps
*.switch4.eth[8].bitrate = 1200Mbps
*.switch4.eth[9].bitrate = 2300Mbps
*.host5.eth[0].bitrate = 1000Mbps
*.switch5.eth[0].bitrate = 1000Mbps
*.switch5.eth[1].bitrate = 1800Mbps
*.switch5.eth[2].bitrate = 1300Mbps
*.switch5.eth[3].bitrate = 1800Mbps
*.switch5.eth[4].bitrate = 1500Mbps
*.switch5.eth[5].bitrate = 1300Mbps
*.switch5.eth[6].bitrate = 1400Mbps
*.switch5.eth[7].bitrate = 1500Mbps
*.switch5.eth[8].bitrate = 2400Mbps
*.switch5.eth[9].bitrate = 2200Mbps
*.host6.eth[0].bitrate = 1000Mbps
*.switch6.eth[0].bitrate = 1000Mbps
*.switch6.eth[1].bitrate = 1300Mbps
*.switch6.eth[2].bitrate = 2400Mbps
*.switch6.eth[3].bitrate = 1400Mbps
*.switch6.eth[4].bitrate = 1900Mbps
*.switch6.eth[5].bitrate = 1700Mbps
*.switch6.eth[6].bitrate = 2300Mbps
*.switch6.eth[7].bitrate = 1600Mbps
*.switch6.eth[8].bitrate = 1600Mbps
*.switch6.eth[9].bitrate = 2200Mbps
*.switch6.eth[10].bitrate = 1500Mbps
*.switch6.eth[11].bitrate = 1600Mbps
*.switch6.eth[12].bitrate = 1800Mbps
*.switch6.eth[13].bitrate = 2000Mbps
*.switch6.eth[14].bitrate = 1600Mbps
*.host7.eth[0].bitrate = 1000Mbps
*.switch7.eth[0].bitrate = 1000Mbps
*.switch7.eth[1].bitrate = 2000Mbps
*.switch7.eth[2].bitrate = 1300Mbps
*.switch7.eth[3].bitrate = 1500Mbps
*.switch7.eth[4].bitrate = 1600Mbps
*.switch7.eth[5].bitrate = 1200Mbps
*.switch7.eth[6].bitrate = 1900Mbps
*.switch7.eth[7].bitrate = 2300Mbps
*.switch7.eth[8].bitrate = 1700Mbps
*.switch7.eth[9].bitrate = 2400Mbps
*.switch7.eth[10].bitrate = 2000Mbps
*.switch7.eth[11].bitrate = 2200Mbps
*.switch7.eth[12].bitrate = 1200Mbps
*.switch7.eth[13].bitrate = 1700Mbps
*.host8.eth[0].bitrate = 1000Mbps
*.switch8.eth[0].bitrate = 1000Mbps
*.switch8.eth[1].bitrate = 1900Mbps
*.switch8.eth[2].bitrate = 2300Mbps
*.switch8.eth[3].bitrate = 1300Mbps
*.switch8.eth[4].bitrate = 1800Mbps
*.switch8.eth[5].bitrate = 1600Mbps
*.switch8.eth[6].bitrate = 2400Mbps
*.switch8.eth[7].bitrate = 2400Mbps
*.switch8.eth[8].bitrate = 1200Mbps
*.switch8.eth[9].bitrate = 2200Mbps
*.switch8.eth[10].bitrate = 1600Mbps
*.switch8.eth[11].bitrate = 1200Mbps
*.switch8.eth[12].bitrate = 2400Mbps
*.switch8.eth[13].bitrate = 2200Mbps
*.host9.eth[0].bitrate = 1000Mbps
*.switch9.eth[0].bitrate = 1000Mbps
*.switch9.eth[1].bitrate = 2100Mbps
*.switch9.eth[2].bitrate = 2200Mbps
*.switch9.eth[3].bitrate = 2300Mbps
*.switch9.eth[4].bitrate = 1400Mbps
*.switch9.eth[5].bitrate = 2200Mbps
*.switch9.eth[6].bitrate = 2400Mbps
*.switch9.eth[7].bitrate = 2200Mbps
*.switch9.eth[8].bitrate = 2300Mbps
*.switch9.eth[9].bitrate = 1500Mbps
*.switch9.eth[10].bitrate = 2300Mbps
*.switch9.eth[11].bitrate = 1700Mbps
*.switch9.eth[12].bitrate = 2200Mbps
*.host0.numApps = 2
*.host0.app[0].typename = "UdpSinkApp"
*.host0.app[0].io.localPort = 1000
*.host0.app[1].typename = "UdpSinkApp"
*.host0.app[1].io.localPort = 1001
*.host1.numApps = 13
*.host1.app[0].typename = "UdpSourceApp"
*.host1.app[0].io.destAddress = "host7"
*.host1.app[0].source.packetNameFormat = "%M-%m-%c"
*.host1.app[0].source.displayStringTextFormat = "sent %p pk (%l)"
*.host1.app[0].source.packetLength = 23B
*.host1.app[0].source.productionInterval = 1ms
*.host1.app[0].display-name = "type1_2"
*.host1.app[0].io.destPort = 1000
*.host1.app[1].typename = "UdpBasicApp"
*.host1.app[1].destAddresses = "host9"
*.host1.app[1].source.packetNameFormat = "%M-%m-%c"
*.host1.app[1].source.displayStringTextFormat = "sent %p pk (%l)"
*.host1.app[1].messageLength = 15B
*.host1.app[1].sendInterval = 1ms
*.host1.app[1].startTime = 3ms
*.host1.app[1].stopTime = 5ms
*.host1.app[1].display-name = "type2_2"
*.host1.app[1].destPort = 1000
*.host1.app[2].typename = "UdpBasicApp"
*.host1.app[2].destAddresses = "host9"
*.host1.app[2].source.packetNameFormat = "%M-%m-%c"
*.host1.app[2].source.displayStringTextFormat = "sent %p pk (%l)"
*.host1.app[2].messageLength = 15B
*.host1.app[2].sendInterval = 1ms
*.host1.app[2].startTime = 8ms
*.host1.app[2].stopTime = 22ms
*.host1.app[2].display-name = "type2_2"
*.host1.app[2].destPort = 1000
*.host1.app[3].typename = "UdpBasicApp"
*.host1.app[3].destAddresses = "host9"
*.host1.app[3].source.packetNameFormat = "%M-%m-%c"
*.host1.app[3].source.displayStringTextFormat = "sent %p pk (%l)"
*.host1.app[3].messageLength = 15B
*.host1.app[3].sendInterval = 1ms
*.host1.app[3].startTime = 39ms
*.host1.app[3].stopTime = 57ms
*.host1.app[3].display-name = "type2_2"
*.host1.app[3].destPort = 1000
*.host1.app[4].typename = "UdpBasicApp"
*.host1.app[4].destAddresses = "host9"
*.host1.app[4].source.packetNameFormat = "%M-%m-%c"
*.host1.app[4].source.displayStringTextFormat = "sent %p pk (%l)"
*.host1.app[4].messageLength = 15B
*.host1.app[4].sendInterval = 1ms
*.host1.app[4].startTime = 76ms
*.host1.app[4].stopTime = 79ms
*.host1.app[4].display-name = "type2_2"
*.host1.app[4].destPort = 1000
*.host1.app[5].typename = "UdpBasicApp"
*.host1.app[5].destAddresses = "host9"
*.host1.app[5].source.packetNameFormat = "%M-%m-%c"
*.host1.app[5].source.displayStringTextFormat = "sent %p pk (%l)"
*.host1.app[5].messageLength = 15B
*.host1.app[5].sendInterval = 1ms
*.host1.app[5].startTime = 94ms
*.host1.app[5].stopTime = 98ms
*.host1.app[5].display-name = "type2_2"
*.host1.app[5].destPort = 1000
*.host1.app[6].typename = "UdpBasicApp"
*.host1.app[6].destAddresses = "host0"
*.host1.app[6].source.packetNameFormat = "%M-%m-%c"
*.host1.app[6].source.displayStringTextFormat = "sent %p pk (%l)"
*.host1.app[6].messageLength = 18B
*.host1.app[6].sendInterval = 1ms
*.host1.app[6].startTime = 0ms
*.host1.app[6].stopTime = 9ms
*.host1.app[6].display-name = "type2_4"
*.host1.app[6].destPort = 1000
*.host1.app[7].typename = "UdpBasicApp"
*.host1.app[7].destAddresses = "host0"
*.host1.app[7].source.packetNameFormat = "%M-%m-%c"
*.host1.app[7].source.displayStringTextFormat = "sent %p pk (%l)"
*.host1.app[7].messageLength = 18B
*.host1.app[7].sendInterval = 1ms
*.host1.app[7].startTime = 15ms
*.host1.app[7].stopTime = 16ms
*.host1.app[7].display-name = "type2_4"
*.host1.app[7].destPort = 1000
*.host1.app[8].typename = "UdpBasicApp"
*.host1.app[8].destAddresses = "host0"
*.host1.app[8].source.packetNameFormat = "%M-%m-%c"
*.host1.app[8].source.displayStringTextFormat = "sent %p pk (%l)"
*.host1.app[8].messageLength = 18B
*.host1.app[8].sendInterval = 1ms
*.host1.app[8].startTime = 17ms
*.host1.app[8].stopTime = 36ms
*.host1.app[8].display-name = "type2_4"
*.host1.app[8].destPort = 1000
*.host1.app[9].typename = "UdpBasicApp"
*.host1.app[9].destAddresses = "host0"
*.host1.app[9].source.packetNameFormat = "%M-%m-%c"
*.host1.app[9].source.displayStringTextFormat = "sent %p pk (%l)"
*.host1.app[9].messageLength = 18B
*.host1.app[9].sendInterval = 1ms
*.host1.app[9].startTime = 39ms
*.host1.app[9].stopTime = 44ms
*.host1.app[9].display-name = "type2_4"
*.host1.app[9].destPort = 1000
*.host1.app[10].typename = "UdpBasicApp"
*.host1.app[10].destAddresses = "host0"
*.host1.app[10].source.packetNameFormat = "%M-%m-%c"
*.host1.app[10].source.displayStringTextFormat = "sent %p pk (%l)"
*.host1.app[10].messageLength = 18B
*.host1.app[10].sendInterval = 1ms
*.host1.app[10].startTime = 49ms
*.host1.app[10].stopTime = 71ms
*.host1.app[10].display-name = "type2_4"
*.host1.app[10].destPort = 1000
*.host1.app[11].typename = "UdpBasicApp"
*.host1.app[11].destAddresses = "host0"
*.host1.app[11].source.packetNameFormat = "%M-%m-%c"
*.host1.app[11].source.displayStringTextFormat = "sent %p pk (%l)"
*.host1.app[11].messageLength = 18B
*.host1.app[11].sendInterval = 1ms
*.host1.app[11].startTime = 75ms
*.host1.app[11].stopTime = 82ms
*.host1.app[11].display-name = "type2_4"
*.host1.app[11].destPort = 1000
*.host1.app[12].typename = "UdpBasicApp"
*.host1.app[12].destAddresses = "host0"
*.host1.app[12].source.packetNameFormat = "%M-%m-%c"
*.host1.app[12].source.displayStringTextFormat = "sent %p pk (%l)"
*.host1.app[12].messageLength = 18B
*.host1.app[12].sendInterval = 1ms
*.host1.app[12].startTime = 97ms
*.host1.app[12].stopTime = 100ms
*.host1.app[12].display-name = "type2_4"
*.host1.app[12].destPort = 1000
*.host2.numApps = 6
*.host2.app[0].typename = "UdpSinkApp"
*.host2.app[0].io.localPort = 1000
*.host2.app[1].typename = "UdpBasicApp"
*.host2.app[1].destAddresses = "host6"
*.host2.app[1].source.packetNameFormat = "%M-%m-%c"
*.host2.app[1].source.displayStringTextFormat = "sent %p pk (%l)"
*.host2.app[1].messageLength = 19B
*.host2.app[1].sendInterval = 1ms
*.host2.app[1].startTime = 9ms
*.host2.app[1].stopTime = 11ms
*.host2.app[1].display-name = "type2_3"
*.host2.app[1].destPort = 1000
*.host2.app[2].typename = "UdpBasicApp"
*.host2.app[2].destAddresses = "host6"
*.host2.app[2].source.packetNameFormat = "%M-%m-%c"
*.host2.app[2].source.displayStringTextFormat = "sent %p pk (%l)"
*.host2.app[2].messageLength = 19B
*.host2.app[2].sendInterval = 1ms
*.host2.app[2].startTime = 33ms
*.host2.app[2].stopTime = 56ms
*.host2.app[2].display-name = "type2_3"
*.host2.app[2].destPort = 1000
*.host2.app[3].typename = "UdpBasicApp"
*.host2.app[3].destAddresses = "host6"
*.host2.app[3].source.packetNameFormat = "%M-%m-%c"
*.host2.app[3].source.displayStringTextFormat = "sent %p pk (%l)"
*.host2.app[3].messageLength = 19B
*.host2.app[3].sendInterval = 1ms
*.host2.app[3].startTime = 59ms
*.host2.app[3].stopTime = 62ms
*.host2.app[3].display-name = "type2_3"
*.host2.app[3].destPort = 1000
*.host2.app[4].typename = "UdpBasicApp"
*.host2.app[4].destAddresses = "host6"
*.host2.app[4].source.packetNameFormat = "%M-%m-%c"
*.host2.app[4].source.displayStringTextFormat = "sent %p pk (%l)"
*.host2.app[4].messageLength = 19B
*.host2.app[4].sendInterval = 1ms
*.host2.app[4].startTime = 67ms
*.host2.app[4].stopTime = 90ms
*.host2.app[4].display-name = "type2_3"
*.host2.app[4].destPort = 1000
*.host2.app[5].typename = "UdpBasicApp"
*.host2.app[5].destAddresses = "host6"
*.host2.app[5].source.packetNameFormat = "%M-%m-%c"
*.host2.app[5].source.displayStringTextFormat = "sent %p pk (%l)"
*.host2.app[5].messageLength = 19B
*.host2.app[5].sendInterval = 1ms
*.host2.app[5].startTime = 91ms
*.host2.app[5].stopTime = 96ms
*.host2.app[5].display-name = "type2_3"
*.host2.app[5].destPort = 1000
*.host3.numApps = 3
*.host3.app[0].typename = "UdpSinkApp"
*.host3.app[0].io.localPort = 1000
*.host3.app[1].typename = "UdpSinkApp"
*.host3.app[1].io.localPort = 1001
*.host3.app[2].typename = "UdpSinkApp"
*.host3.app[2].io.localPort = 1002
*.host4.numApps = 0
*.host5.numApps = 8
*.host5.app[0].typename = "UdpBasicApp"
*.host5.app[0].destAddresses = "host2"
*.host5.app[0].source.packetNameFormat = "%M-%m-%c"
*.host5.app[0].source.displayStringTextFormat = "sent %p pk (%l)"
*.host5.app[0].messageLength = 20B
*.host5.app[0].sendInterval = 1ms
*.host5.app[0].startTime = 0ms
*.host5.app[0].stopTime = 5ms
*.host5.app[0].display-name = "type2_0"
*.host5.app[0].destPort = 1000
*.host5.app[1].typename = "UdpBasicApp"
*.host5.app[1].destAddresses = "host2"
*.host5.app[1].source.packetNameFormat = "%M-%m-%c"
*.host5.app[1].source.displayStringTextFormat = "sent %p pk (%l)"
*.host5.app[1].messageLength = 20B
*.host5.app[1].sendInterval = 1ms
*.host5.app[1].startTime = 15ms
*.host5.app[1].stopTime = 19ms
*.host5.app[1].display-name = "type2_0"
*.host5.app[1].destPort = 1000
*.host5.app[2].typename = "UdpBasicApp"
*.host5.app[2].destAddresses = "host2"
*.host5.app[2].source.packetNameFormat = "%M-%m-%c"
*.host5.app[2].source.displayStringTextFormat = "sent %p pk (%l)"
*.host5.app[2].messageLength = 20B
*.host5.app[2].sendInterval = 1ms
*.host5.app[2].startTime = 20ms
*.host5.app[2].stopTime = 21ms
*.host5.app[2].display-name = "type2_0"
*.host5.app[2].destPort = 1000
*.host5.app[3].typename = "UdpBasicApp"
*.host5.app[3].destAddresses = "host2"
*.host5.app[3].source.packetNameFormat = "%M-%m-%c"
*.host5.app[3].source.displayStringTextFormat = "sent %p pk (%l)"
*.host5.app[3].messageLength = 20B
*.host5.app[3].sendInterval = 1ms
*.host5.app[3].startTime = 25ms
*.host5.app[3].stopTime = 38ms
*.host5.app[3].display-name = "type2_0"
*.host5.app[3].destPort = 1000
*.host5.app[4].typename = "UdpBasicApp"
*.host5.app[4].destAddresses = "host2"
*.host5.app[4].source.packetNameFormat = "%M-%m-%c"
*.host5.app[4].source.displayStringTextFormat = "sent %p pk (%l)"
*.host5.app[4].messageLength = 20B
*.host5.app[4].sendInterval = 1ms
*.host5.app[4].startTime = 51ms
*.host5.app[4].stopTime = 58ms
*.host5.app[4].display-name = "type2_0"
*.host5.app[4].destPort = 1000
*.host5.app[5].typename = "UdpBasicApp"
*.host5.app[5].destAddresses = "host2"
*.host5.app[5].source.packetNameFormat = "%M-%m-%c"
*.host5.app[5].source.displayStringTextFormat = "sent %p pk (%l)"
*.host5.app[5].messageLength = 20B
*.host5.app[5].sendInterval = 1ms
*.host5.app[5].startTime = 68ms
*.host5.app[5].stopTime = 75ms
*.host5.app[5].display-name = "type2_0"
*.host5.app[5].destPort = 1000
*.host5.app[6].typename = "UdpBasicApp"
*.host5.app[6].destAddresses = "host2"
*.host5.app[6].source.packetNameFormat = "%M-%m-%c"
*.host5.app[6].source.displayStringTextFormat = "sent %p pk (%l)"
*.host5.app[6].messageLength = 20B
*.host5.app[6].sendInterval = 1ms
*.host5.app[6].startTime = 77ms
*.host5.app[6].stopTime = 84ms
*.host5.app[6].display-name = "type2_0"
*.host5.app[6].destPort = 1000
*.host5.app[7].typename = "UdpBasicApp"
*.host5.app[7].destAddresses = "host2"
*.host5.app[7].source.packetNameFormat = "%M-%m-%c"
*.host5.app[7].source.displayStringTextFormat = "sent %p pk (%l)"
*.host5.app[7].messageLength = 20B
*.host5.app[7].sendInterval = 1ms
*.host5.app[7].startTime = 99ms
*.host5.app[7].stopTime = 100ms
*.host5.app[7].display-name = "type2_0"
*.host5.app[7].destPort = 1000
*.host6.numApps = 1
*.host6.app[0].typename = "UdpSinkApp"
*.host6.app[0].io.localPort = 1000
*.host7.numApps = 1
*.host7.app[0].typename = "UdpSinkApp"
*.host7.app[0].io.localPort = 1000
*.host8.numApps = 0
*.host9.numApps = 9
*.host9.app[0].typename = "UdpSourceApp"
*.host9.app[0].io.destAddress = "host3"
*.host9.app[0].source.packetNameFormat = "%M-%m-%c"
*.host9.app[0].source.displayStringTextFormat = "sent %p pk (%l)"
*.host9.app[0].source.packetLength = 22B
*.host9.app[0].source.productionInterval = 1ms
*.host9.app[0].display-name = "type1_0"
*.host9.app[0].io.destPort = 1000
*.host9.app[1].typename = "UdpSourceApp"
*.host9.app[1].io.destAddress = "host3"
*.host9.app[1].source.packetNameFormat = "%M-%m-%c"
*.host9.app[1].source.displayStringTextFormat = "sent %p pk (%l)"
*.host9.app[1].source.packetLength = 17B
*.host9.app[1].source.productionInterval = 1ms
*.host9.app[1].display-name = "type1_1"
*.host9.app[1].io.destPort = 1001
*.host9.app[2].typename = "UdpBasicApp"
*.host9.app[2].destAddresses = "host3"
*.host9.app[2].source.packetNameFormat = "%M-%m-%c"
*.host9.app[2].source.displayStringTextFormat = "sent %p pk (%l)"
*.host9.app[2].messageLength = 22B
*.host9.app[2].sendInterval = 1ms
*.host9.app[2].startTime = 7ms
*.host9.app[2].stopTime = 8ms
*.host9.app[2].display-name = "type2_1"
*.host9.app[2].destPort = 1002
*.host9.app[3].typename = "UdpBasicApp"
*.host9.app[3].destAddresses = "host3"
*.host9.app[3].source.packetNameFormat = "%M-%m-%c"
*.host9.app[3].source.displayStringTextFormat = "sent %p pk (%l)"
*.host9.app[3].messageLength = 22B
*.host9.app[3].sendInterval = 1ms
*.host9.app[3].startTime = 20ms
*.host9.app[3].stopTime = 23ms
*.host9.app[3].display-name = "type2_1"
*.host9.app[3].destPort = 1002
*.host9.app[4].typename = "UdpBasicApp"
*.host9.app[4].destAddresses = "host3"
*.host9.app[4].source.packetNameFormat = "%M-%m-%c"
*.host9.app[4].source.displayStringTextFormat = "sent %p pk (%l)"
*.host9.app[4].messageLength = 22B
*.host9.app[4].sendInterval = 1ms
*.host9.app[4].startTime = 37ms
*.host9.app[4].stopTime = 67ms
*.host9.app[4].display-name = "type2_1"
*.host9.app[4].destPort = 1002
*.host9.app[5].typename = "UdpSinkApp"
*.host9.app[5].io.localPort = 1000
*.host9.app[6].typename = "UdpBasicApp"
*.host9.app[6].destAddresses = "host0"
*.host9.app[6].source.packetNameFormat = "%M-%m-%c"
*.host9.app[6].source.displayStringTextFormat = "sent %p pk (%l)"
*.host9.app[6].messageLength = 21B
*.host9.app[6].sendInterval = 1ms
*.host9.app[6].startTime = 41ms
*.host9.app[6].stopTime = 48ms
*.host9.app[6].display-name = "type2_5"
*.host9.app[6].destPort = 1001
*.host9.app[7].typename = "UdpBasicApp"
*.host9.app[7].destAddresses = "host0"
*.host9.app[7].source.packetNameFormat = "%M-%m-%c"
*.host9.app[7].source.displayStringTextFormat = "sent %p pk (%l)"
*.host9.app[7].messageLength = 21B
*.host9.app[7].sendInterval = 1ms
*.host9.app[7].startTime = 75ms
*.host9.app[7].stopTime = 91ms
*.host9.app[7].display-name = "type2_5"
*.host9.app[7].destPort = 1001
*.host9.app[8].typename = "UdpBasicApp"
*.host9.app[8].destAddresses = "host0"
*.host9.app[8].source.packetNameFormat = "%M-%m-%c"
*.host9.app[8].source.displayStringTextFormat = "sent %p pk (%l)"
*.host9.app[8].messageLength = 21B
*.host9.app[8].sendInterval = 1ms
*.host9.app[8].startTime = 97ms
*.host9.app[8].stopTime = 100ms
*.host9.app[8].display-name = "type2_5"
*.host9.app[8].destPort = 1001
*.streamRedundancyConfigurator.configuration = [
	{
		name: "S1-0",
		packetFilter: "*-type1_0-*",
		source: "host9",
		destination: "host3",
		trees: [[["host9", "switch9", "switch0", "switch3", "host3"]]]
	},
	{
		name: "S1-1",
		packetFilter: "*-type1_1-*",
		source: "host9",
		destination: "host3",
		trees: [[["host9", "switch9", "switch0", "switch3", "host3"]]]
	},
	{
		name: "S1-2",
		packetFilter: "*-type1_2-*",
		source: "host1",
		destination: "host7",
		trees: [[["host1", "switch1", "switch9", "switch0", "switch7", "host7"]]]
	},
	{
		name: "S2-0",
		packetFilter: "*-type2_0-*",
		source: "host5",
		destination: "host2",
		trees: [[["host5", "switch5", "switch7", "switch1", "switch8", "switch2", "host2"]]]
	},
	{
		name: "S2-1",
		packetFilter: "*-type2_1-*",
		source: "host9",
		destination: "host3",
		trees: [[["host9", "switch9", "switch7", "switch3", "host3"]]]
	},
	{
		name: "S2-2",
		packetFilter: "*-type2_2-*",
		source: "host1",
		destination: "host9",
		trees: [[["host1", "switch1", "switch5", "switch9", "host9"]]]
	},
	{
		name: "S2-3",
		packetFilter: "*-type2_3-*",
		source: "host2",
		destination: "host6",
		trees: [[["host2", "switch2", "switch6", "host6"]]]
	},
	{
		name: "S2-4",
		packetFilter: "*-type2_4-*",
		source: "host1",
		destination: "host0",
		trees: [[["host1", "switch1", "switch8", "switch2", "switch6", "switch0", "host0"]]]
	},
	{
		name: "S2-5",
		packetFilter: "*-type2_5-*",
		source: "host9",
		destination: "host0",
		trees: [[["host9", "switch9", "switch7", "switch3", "switch0", "host0"]]]
	}]
	

