
[General]
network = TSN_multipath
sim-time-limit = 10ms

# disable automatic MAC forwarding table configuration
*.macForwardingTableConfigurator.typename = ""

# enable frame replication and elimination
*.*.hasStreamRedundancy = true

# enable stream policing in layer 2
*.*.bridging.streamRelay.typename = "StreamRelayLayer"
*.*.bridging.streamCoder.typename = "StreamCoderLayer"

# enable automatic stream redundancy configurator
*.streamRedundancyConfigurator.typename = "StreamRedundancyConfigurator"

*.host0.eth[0].bitrate = 100Mbps
*.switch0.eth[0].bitrate = 100Mbps
*.switch0.eth[1].bitrate = 100Mbps
*.switch0.eth[2].bitrate = 80Mbps
*.switch0.eth[3].bitrate = 130Mbps
*.switch0.eth[4].bitrate = 120Mbps
*.switch0.eth[5].bitrate = 100Mbps
*.host1.eth[0].bitrate = 100Mbps
*.switch1.eth[0].bitrate = 100Mbps
*.switch1.eth[1].bitrate = 100Mbps
*.switch1.eth[2].bitrate = 100Mbps
*.switch1.eth[3].bitrate = 80Mbps
*.host2.eth[0].bitrate = 100Mbps
*.switch2.eth[0].bitrate = 100Mbps
*.switch2.eth[1].bitrate = 100Mbps
*.switch2.eth[2].bitrate = 100Mbps
*.switch2.eth[3].bitrate = 130Mbps
*.switch2.eth[4].bitrate = 200Mbps
*.host3.eth[0].bitrate = 100Mbps
*.switch3.eth[0].bitrate = 100Mbps
*.switch3.eth[1].bitrate = 80Mbps
*.switch3.eth[2].bitrate = 100Mbps
*.switch3.eth[3].bitrate = 120Mbps
*.switch3.eth[4].bitrate = 200Mbps
*.host4.eth[0].bitrate = 100Mbps
*.switch4.eth[0].bitrate = 100Mbps
*.switch4.eth[1].bitrate = 80Mbps
*.switch4.eth[2].bitrate = 200Mbps
*.switch4.eth[3].bitrate = 100Mbps
*.switch4.eth[4].bitrate = 200Mbps

# apps
            
*.host0.numApps = 12

*.host0.app[0].typename = "UdpSourceApp"
*.host0.app[0].io.destAddress = "host2"
*.host0.app[0].source.packetNameFormat = "%M-%m-%c"
*.host0.app[0].source.displayStringTextFormat = "sent %p pk (%l)"
*.host0.app[0].source.packetLength = 250B
*.host0.app[0].source.productionInterval = 100us
*.host0.app[0].display-name = "type1_0"
*.host0.app[0].io.destPort = 1000
                            
*.host0.app[1].typename = "UdpSourceApp"
*.host0.app[1].io.destAddress = "host4"
*.host0.app[1].source.packetNameFormat = "%M-%m-%c"
*.host0.app[1].source.displayStringTextFormat = "sent %p pk (%l)"
*.host0.app[1].source.packetLength = 200B
*.host0.app[1].source.productionInterval = 100us
*.host0.app[1].display-name = "type1_1"
*.host0.app[1].io.destPort = 1000
                            
*.host0.app[2].typename = "UdpBasicApp"
*.host0.app[2].destAddresses = "host4"
*.host0.app[2].source.packetNameFormat = "%M-%m-%c"
*.host0.app[2].source.displayStringTextFormat = "sent %p pk (%l)"
*.host0.app[2].messageLength = 500B
*.host0.app[2].sendInterval = 100us
*.host0.app[2].startTime = 1200us
*.host0.app[2].stopTime = 1600us
*.host0.app[2].display-name = "type2_0"
*.host0.app[2].destPort = 1001
                            
*.host0.app[3].typename = "UdpBasicApp"
*.host0.app[3].destAddresses = "host4"
*.host0.app[3].source.packetNameFormat = "%M-%m-%c"
*.host0.app[3].source.displayStringTextFormat = "sent %p pk (%l)"
*.host0.app[3].messageLength = 500B
*.host0.app[3].sendInterval = 100us
*.host0.app[3].startTime = 2800us
*.host0.app[3].stopTime = 3900us
*.host0.app[3].display-name = "type2_0"
*.host0.app[3].destPort = 1001
                            
*.host0.app[4].typename = "UdpBasicApp"
*.host0.app[4].destAddresses = "host4"
*.host0.app[4].source.packetNameFormat = "%M-%m-%c"
*.host0.app[4].source.displayStringTextFormat = "sent %p pk (%l)"
*.host0.app[4].messageLength = 500B
*.host0.app[4].sendInterval = 100us
*.host0.app[4].startTime = 4200us
*.host0.app[4].stopTime = 4300us
*.host0.app[4].display-name = "type2_0"
*.host0.app[4].destPort = 1001
                            
*.host0.app[5].typename = "UdpBasicApp"
*.host0.app[5].destAddresses = "host4"
*.host0.app[5].source.packetNameFormat = "%M-%m-%c"
*.host0.app[5].source.displayStringTextFormat = "sent %p pk (%l)"
*.host0.app[5].messageLength = 500B
*.host0.app[5].sendInterval = 100us
*.host0.app[5].startTime = 4500us
*.host0.app[5].stopTime = 5300us
*.host0.app[5].display-name = "type2_0"
*.host0.app[5].destPort = 1001
                            
*.host0.app[6].typename = "UdpBasicApp"
*.host0.app[6].destAddresses = "host4"
*.host0.app[6].source.packetNameFormat = "%M-%m-%c"
*.host0.app[6].source.displayStringTextFormat = "sent %p pk (%l)"
*.host0.app[6].messageLength = 500B
*.host0.app[6].sendInterval = 100us
*.host0.app[6].startTime = 5800us
*.host0.app[6].stopTime = 6500us
*.host0.app[6].display-name = "type2_0"
*.host0.app[6].destPort = 1001
                            
*.host0.app[7].typename = "UdpBasicApp"
*.host0.app[7].destAddresses = "host4"
*.host0.app[7].source.packetNameFormat = "%M-%m-%c"
*.host0.app[7].source.displayStringTextFormat = "sent %p pk (%l)"
*.host0.app[7].messageLength = 500B
*.host0.app[7].sendInterval = 100us
*.host0.app[7].startTime = 6600us
*.host0.app[7].stopTime = 7000us
*.host0.app[7].display-name = "type2_0"
*.host0.app[7].destPort = 1001
                            
*.host0.app[8].typename = "UdpBasicApp"
*.host0.app[8].destAddresses = "host4"
*.host0.app[8].source.packetNameFormat = "%M-%m-%c"
*.host0.app[8].source.displayStringTextFormat = "sent %p pk (%l)"
*.host0.app[8].messageLength = 500B
*.host0.app[8].sendInterval = 100us
*.host0.app[8].startTime = 7700us
*.host0.app[8].stopTime = 8300us
*.host0.app[8].display-name = "type2_0"
*.host0.app[8].destPort = 1001
                            
*.host0.app[9].typename = "UdpBasicApp"
*.host0.app[9].destAddresses = "host4"
*.host0.app[9].source.packetNameFormat = "%M-%m-%c"
*.host0.app[9].source.displayStringTextFormat = "sent %p pk (%l)"
*.host0.app[9].messageLength = 500B
*.host0.app[9].sendInterval = 100us
*.host0.app[9].startTime = 8500us
*.host0.app[9].stopTime = 9200us
*.host0.app[9].display-name = "type2_0"
*.host0.app[9].destPort = 1001
                            
*.host0.app[10].typename = "UdpBasicApp"
*.host0.app[10].destAddresses = "host4"
*.host0.app[10].source.packetNameFormat = "%M-%m-%c"
*.host0.app[10].source.displayStringTextFormat = "sent %p pk (%l)"
*.host0.app[10].messageLength = 500B
*.host0.app[10].sendInterval = 100us
*.host0.app[10].startTime = 9600us
*.host0.app[10].stopTime = 10000us
*.host0.app[10].display-name = "type2_0"
*.host0.app[10].destPort = 1001
                            
*.host0.app[11].typename = "UdpSinkApp"
*.host0.app[11].io.localPort = 1000
                        
*.host1.numApps = 20

*.host1.app[0].typename = "UdpBasicApp"
*.host1.app[0].destAddresses = "host0"
*.host1.app[0].source.packetNameFormat = "%M-%m-%c"
*.host1.app[0].source.displayStringTextFormat = "sent %p pk (%l)"
*.host1.app[0].messageLength = 1000B
*.host1.app[0].sendInterval = 100us
*.host1.app[0].startTime = 0us
*.host1.app[0].stopTime = 200us
*.host1.app[0].display-name = "type2_1"
*.host1.app[0].destPort = 1000
                            
*.host1.app[1].typename = "UdpBasicApp"
*.host1.app[1].destAddresses = "host0"
*.host1.app[1].source.packetNameFormat = "%M-%m-%c"
*.host1.app[1].source.displayStringTextFormat = "sent %p pk (%l)"
*.host1.app[1].messageLength = 1000B
*.host1.app[1].sendInterval = 100us
*.host1.app[1].startTime = 300us
*.host1.app[1].stopTime = 500us
*.host1.app[1].display-name = "type2_1"
*.host1.app[1].destPort = 1000
                            
*.host1.app[2].typename = "UdpBasicApp"
*.host1.app[2].destAddresses = "host0"
*.host1.app[2].source.packetNameFormat = "%M-%m-%c"
*.host1.app[2].source.displayStringTextFormat = "sent %p pk (%l)"
*.host1.app[2].messageLength = 1000B
*.host1.app[2].sendInterval = 100us
*.host1.app[2].startTime = 700us
*.host1.app[2].stopTime = 1300us
*.host1.app[2].display-name = "type2_1"
*.host1.app[2].destPort = 1000
                            
*.host1.app[3].typename = "UdpBasicApp"
*.host1.app[3].destAddresses = "host0"
*.host1.app[3].source.packetNameFormat = "%M-%m-%c"
*.host1.app[3].source.displayStringTextFormat = "sent %p pk (%l)"
*.host1.app[3].messageLength = 1000B
*.host1.app[3].sendInterval = 100us
*.host1.app[3].startTime = 1400us
*.host1.app[3].stopTime = 1600us
*.host1.app[3].display-name = "type2_1"
*.host1.app[3].destPort = 1000
                            
*.host1.app[4].typename = "UdpBasicApp"
*.host1.app[4].destAddresses = "host0"
*.host1.app[4].source.packetNameFormat = "%M-%m-%c"
*.host1.app[4].source.displayStringTextFormat = "sent %p pk (%l)"
*.host1.app[4].messageLength = 1000B
*.host1.app[4].sendInterval = 100us
*.host1.app[4].startTime = 1700us
*.host1.app[4].stopTime = 2400us
*.host1.app[4].display-name = "type2_1"
*.host1.app[4].destPort = 1000
                            
*.host1.app[5].typename = "UdpBasicApp"
*.host1.app[5].destAddresses = "host0"
*.host1.app[5].source.packetNameFormat = "%M-%m-%c"
*.host1.app[5].source.displayStringTextFormat = "sent %p pk (%l)"
*.host1.app[5].messageLength = 1000B
*.host1.app[5].sendInterval = 100us
*.host1.app[5].startTime = 2500us
*.host1.app[5].stopTime = 3100us
*.host1.app[5].display-name = "type2_1"
*.host1.app[5].destPort = 1000
                            
*.host1.app[6].typename = "UdpBasicApp"
*.host1.app[6].destAddresses = "host0"
*.host1.app[6].source.packetNameFormat = "%M-%m-%c"
*.host1.app[6].source.displayStringTextFormat = "sent %p pk (%l)"
*.host1.app[6].messageLength = 1000B
*.host1.app[6].sendInterval = 100us
*.host1.app[6].startTime = 3300us
*.host1.app[6].stopTime = 4100us
*.host1.app[6].display-name = "type2_1"
*.host1.app[6].destPort = 1000
                            
*.host1.app[7].typename = "UdpBasicApp"
*.host1.app[7].destAddresses = "host0"
*.host1.app[7].source.packetNameFormat = "%M-%m-%c"
*.host1.app[7].source.displayStringTextFormat = "sent %p pk (%l)"
*.host1.app[7].messageLength = 1000B
*.host1.app[7].sendInterval = 100us
*.host1.app[7].startTime = 4400us
*.host1.app[7].stopTime = 4700us
*.host1.app[7].display-name = "type2_1"
*.host1.app[7].destPort = 1000
                            
*.host1.app[8].typename = "UdpBasicApp"
*.host1.app[8].destAddresses = "host0"
*.host1.app[8].source.packetNameFormat = "%M-%m-%c"
*.host1.app[8].source.displayStringTextFormat = "sent %p pk (%l)"
*.host1.app[8].messageLength = 1000B
*.host1.app[8].sendInterval = 100us
*.host1.app[8].startTime = 4800us
*.host1.app[8].stopTime = 5000us
*.host1.app[8].display-name = "type2_1"
*.host1.app[8].destPort = 1000
                            
*.host1.app[9].typename = "UdpBasicApp"
*.host1.app[9].destAddresses = "host0"
*.host1.app[9].source.packetNameFormat = "%M-%m-%c"
*.host1.app[9].source.displayStringTextFormat = "sent %p pk (%l)"
*.host1.app[9].messageLength = 1000B
*.host1.app[9].sendInterval = 100us
*.host1.app[9].startTime = 5100us
*.host1.app[9].stopTime = 5200us
*.host1.app[9].display-name = "type2_1"
*.host1.app[9].destPort = 1000
                            
*.host1.app[10].typename = "UdpBasicApp"
*.host1.app[10].destAddresses = "host0"
*.host1.app[10].source.packetNameFormat = "%M-%m-%c"
*.host1.app[10].source.displayStringTextFormat = "sent %p pk (%l)"
*.host1.app[10].messageLength = 1000B
*.host1.app[10].sendInterval = 100us
*.host1.app[10].startTime = 5300us
*.host1.app[10].stopTime = 5400us
*.host1.app[10].display-name = "type2_1"
*.host1.app[10].destPort = 1000
                            
*.host1.app[11].typename = "UdpBasicApp"
*.host1.app[11].destAddresses = "host0"
*.host1.app[11].source.packetNameFormat = "%M-%m-%c"
*.host1.app[11].source.displayStringTextFormat = "sent %p pk (%l)"
*.host1.app[11].messageLength = 1000B
*.host1.app[11].sendInterval = 100us
*.host1.app[11].startTime = 5500us
*.host1.app[11].stopTime = 5800us
*.host1.app[11].display-name = "type2_1"
*.host1.app[11].destPort = 1000
                            
*.host1.app[12].typename = "UdpBasicApp"
*.host1.app[12].destAddresses = "host0"
*.host1.app[12].source.packetNameFormat = "%M-%m-%c"
*.host1.app[12].source.displayStringTextFormat = "sent %p pk (%l)"
*.host1.app[12].messageLength = 1000B
*.host1.app[12].sendInterval = 100us
*.host1.app[12].startTime = 5900us
*.host1.app[12].stopTime = 6000us
*.host1.app[12].display-name = "type2_1"
*.host1.app[12].destPort = 1000
                            
*.host1.app[13].typename = "UdpBasicApp"
*.host1.app[13].destAddresses = "host0"
*.host1.app[13].source.packetNameFormat = "%M-%m-%c"
*.host1.app[13].source.displayStringTextFormat = "sent %p pk (%l)"
*.host1.app[13].messageLength = 1000B
*.host1.app[13].sendInterval = 100us
*.host1.app[13].startTime = 6200us
*.host1.app[13].stopTime = 6500us
*.host1.app[13].display-name = "type2_1"
*.host1.app[13].destPort = 1000
                            
*.host1.app[14].typename = "UdpBasicApp"
*.host1.app[14].destAddresses = "host0"
*.host1.app[14].source.packetNameFormat = "%M-%m-%c"
*.host1.app[14].source.displayStringTextFormat = "sent %p pk (%l)"
*.host1.app[14].messageLength = 1000B
*.host1.app[14].sendInterval = 100us
*.host1.app[14].startTime = 6700us
*.host1.app[14].stopTime = 7800us
*.host1.app[14].display-name = "type2_1"
*.host1.app[14].destPort = 1000
                            
*.host1.app[15].typename = "UdpBasicApp"
*.host1.app[15].destAddresses = "host0"
*.host1.app[15].source.packetNameFormat = "%M-%m-%c"
*.host1.app[15].source.displayStringTextFormat = "sent %p pk (%l)"
*.host1.app[15].messageLength = 1000B
*.host1.app[15].sendInterval = 100us
*.host1.app[15].startTime = 8000us
*.host1.app[15].stopTime = 8300us
*.host1.app[15].display-name = "type2_1"
*.host1.app[15].destPort = 1000
                            
*.host1.app[16].typename = "UdpBasicApp"
*.host1.app[16].destAddresses = "host0"
*.host1.app[16].source.packetNameFormat = "%M-%m-%c"
*.host1.app[16].source.displayStringTextFormat = "sent %p pk (%l)"
*.host1.app[16].messageLength = 1000B
*.host1.app[16].sendInterval = 100us
*.host1.app[16].startTime = 8500us
*.host1.app[16].stopTime = 8700us
*.host1.app[16].display-name = "type2_1"
*.host1.app[16].destPort = 1000
                            
*.host1.app[17].typename = "UdpBasicApp"
*.host1.app[17].destAddresses = "host0"
*.host1.app[17].source.packetNameFormat = "%M-%m-%c"
*.host1.app[17].source.displayStringTextFormat = "sent %p pk (%l)"
*.host1.app[17].messageLength = 1000B
*.host1.app[17].sendInterval = 100us
*.host1.app[17].startTime = 8800us
*.host1.app[17].stopTime = 9100us
*.host1.app[17].display-name = "type2_1"
*.host1.app[17].destPort = 1000
                            
*.host1.app[18].typename = "UdpBasicApp"
*.host1.app[18].destAddresses = "host0"
*.host1.app[18].source.packetNameFormat = "%M-%m-%c"
*.host1.app[18].source.displayStringTextFormat = "sent %p pk (%l)"
*.host1.app[18].messageLength = 1000B
*.host1.app[18].sendInterval = 100us
*.host1.app[18].startTime = 9300us
*.host1.app[18].stopTime = 9700us
*.host1.app[18].display-name = "type2_1"
*.host1.app[18].destPort = 1000
                            
*.host1.app[19].typename = "UdpBasicApp"
*.host1.app[19].destAddresses = "host0"
*.host1.app[19].source.packetNameFormat = "%M-%m-%c"
*.host1.app[19].source.displayStringTextFormat = "sent %p pk (%l)"
*.host1.app[19].messageLength = 1000B
*.host1.app[19].sendInterval = 100us
*.host1.app[19].startTime = 9800us
*.host1.app[19].stopTime = 9900us
*.host1.app[19].display-name = "type2_1"
*.host1.app[19].destPort = 1000
                            
*.host2.numApps = 2

*.host2.app[0].typename = "UdpSinkApp"
*.host2.app[0].io.localPort = 1000
                        
*.host2.app[1].typename = "UdpSinkApp"
*.host2.app[1].io.localPort = 1001
                        
*.host3.numApps = 26

*.host3.app[0].typename = "UdpBasicApp"
*.host3.app[0].destAddresses = "host2"
*.host3.app[0].source.packetNameFormat = "%M-%m-%c"
*.host3.app[0].source.displayStringTextFormat = "sent %p pk (%l)"
*.host3.app[0].messageLength = 500B
*.host3.app[0].sendInterval = 100us
*.host3.app[0].startTime = 0us
*.host3.app[0].stopTime = 100us
*.host3.app[0].display-name = "type2_2"
*.host3.app[0].destPort = 1001
                            
*.host3.app[1].typename = "UdpBasicApp"
*.host3.app[1].destAddresses = "host2"
*.host3.app[1].source.packetNameFormat = "%M-%m-%c"
*.host3.app[1].source.displayStringTextFormat = "sent %p pk (%l)"
*.host3.app[1].messageLength = 500B
*.host3.app[1].sendInterval = 100us
*.host3.app[1].startTime = 200us
*.host3.app[1].stopTime = 300us
*.host3.app[1].display-name = "type2_2"
*.host3.app[1].destPort = 1001
                            
*.host3.app[2].typename = "UdpBasicApp"
*.host3.app[2].destAddresses = "host2"
*.host3.app[2].source.packetNameFormat = "%M-%m-%c"
*.host3.app[2].source.displayStringTextFormat = "sent %p pk (%l)"
*.host3.app[2].messageLength = 500B
*.host3.app[2].sendInterval = 100us
*.host3.app[2].startTime = 400us
*.host3.app[2].stopTime = 600us
*.host3.app[2].display-name = "type2_2"
*.host3.app[2].destPort = 1001
                            
*.host3.app[3].typename = "UdpBasicApp"
*.host3.app[3].destAddresses = "host2"
*.host3.app[3].source.packetNameFormat = "%M-%m-%c"
*.host3.app[3].source.displayStringTextFormat = "sent %p pk (%l)"
*.host3.app[3].messageLength = 500B
*.host3.app[3].sendInterval = 100us
*.host3.app[3].startTime = 700us
*.host3.app[3].stopTime = 1400us
*.host3.app[3].display-name = "type2_2"
*.host3.app[3].destPort = 1001
                            
*.host3.app[4].typename = "UdpBasicApp"
*.host3.app[4].destAddresses = "host2"
*.host3.app[4].source.packetNameFormat = "%M-%m-%c"
*.host3.app[4].source.displayStringTextFormat = "sent %p pk (%l)"
*.host3.app[4].messageLength = 500B
*.host3.app[4].sendInterval = 100us
*.host3.app[4].startTime = 1500us
*.host3.app[4].stopTime = 1800us
*.host3.app[4].display-name = "type2_2"
*.host3.app[4].destPort = 1001
                            
*.host3.app[5].typename = "UdpBasicApp"
*.host3.app[5].destAddresses = "host2"
*.host3.app[5].source.packetNameFormat = "%M-%m-%c"
*.host3.app[5].source.displayStringTextFormat = "sent %p pk (%l)"
*.host3.app[5].messageLength = 500B
*.host3.app[5].sendInterval = 100us
*.host3.app[5].startTime = 1900us
*.host3.app[5].stopTime = 2100us
*.host3.app[5].display-name = "type2_2"
*.host3.app[5].destPort = 1001
                            
*.host3.app[6].typename = "UdpBasicApp"
*.host3.app[6].destAddresses = "host2"
*.host3.app[6].source.packetNameFormat = "%M-%m-%c"
*.host3.app[6].source.displayStringTextFormat = "sent %p pk (%l)"
*.host3.app[6].messageLength = 500B
*.host3.app[6].sendInterval = 100us
*.host3.app[6].startTime = 2200us
*.host3.app[6].stopTime = 2300us
*.host3.app[6].display-name = "type2_2"
*.host3.app[6].destPort = 1001
                            
*.host3.app[7].typename = "UdpBasicApp"
*.host3.app[7].destAddresses = "host2"
*.host3.app[7].source.packetNameFormat = "%M-%m-%c"
*.host3.app[7].source.displayStringTextFormat = "sent %p pk (%l)"
*.host3.app[7].messageLength = 500B
*.host3.app[7].sendInterval = 100us
*.host3.app[7].startTime = 2700us
*.host3.app[7].stopTime = 2800us
*.host3.app[7].display-name = "type2_2"
*.host3.app[7].destPort = 1001
                            
*.host3.app[8].typename = "UdpBasicApp"
*.host3.app[8].destAddresses = "host2"
*.host3.app[8].source.packetNameFormat = "%M-%m-%c"
*.host3.app[8].source.displayStringTextFormat = "sent %p pk (%l)"
*.host3.app[8].messageLength = 500B
*.host3.app[8].sendInterval = 100us
*.host3.app[8].startTime = 3000us
*.host3.app[8].stopTime = 3600us
*.host3.app[8].display-name = "type2_2"
*.host3.app[8].destPort = 1001
                            
*.host3.app[9].typename = "UdpBasicApp"
*.host3.app[9].destAddresses = "host2"
*.host3.app[9].source.packetNameFormat = "%M-%m-%c"
*.host3.app[9].source.displayStringTextFormat = "sent %p pk (%l)"
*.host3.app[9].messageLength = 500B
*.host3.app[9].sendInterval = 100us
*.host3.app[9].startTime = 3900us
*.host3.app[9].stopTime = 4200us
*.host3.app[9].display-name = "type2_2"
*.host3.app[9].destPort = 1001
                            
*.host3.app[10].typename = "UdpBasicApp"
*.host3.app[10].destAddresses = "host2"
*.host3.app[10].source.packetNameFormat = "%M-%m-%c"
*.host3.app[10].source.displayStringTextFormat = "sent %p pk (%l)"
*.host3.app[10].messageLength = 500B
*.host3.app[10].sendInterval = 100us
*.host3.app[10].startTime = 4300us
*.host3.app[10].stopTime = 4500us
*.host3.app[10].display-name = "type2_2"
*.host3.app[10].destPort = 1001
                            
*.host3.app[11].typename = "UdpBasicApp"
*.host3.app[11].destAddresses = "host2"
*.host3.app[11].source.packetNameFormat = "%M-%m-%c"
*.host3.app[11].source.displayStringTextFormat = "sent %p pk (%l)"
*.host3.app[11].messageLength = 500B
*.host3.app[11].sendInterval = 100us
*.host3.app[11].startTime = 4700us
*.host3.app[11].stopTime = 4800us
*.host3.app[11].display-name = "type2_2"
*.host3.app[11].destPort = 1001
                            
*.host3.app[12].typename = "UdpBasicApp"
*.host3.app[12].destAddresses = "host2"
*.host3.app[12].source.packetNameFormat = "%M-%m-%c"
*.host3.app[12].source.displayStringTextFormat = "sent %p pk (%l)"
*.host3.app[12].messageLength = 500B
*.host3.app[12].sendInterval = 100us
*.host3.app[12].startTime = 4900us
*.host3.app[12].stopTime = 5000us
*.host3.app[12].display-name = "type2_2"
*.host3.app[12].destPort = 1001
                            
*.host3.app[13].typename = "UdpBasicApp"
*.host3.app[13].destAddresses = "host2"
*.host3.app[13].source.packetNameFormat = "%M-%m-%c"
*.host3.app[13].source.displayStringTextFormat = "sent %p pk (%l)"
*.host3.app[13].messageLength = 500B
*.host3.app[13].sendInterval = 100us
*.host3.app[13].startTime = 5100us
*.host3.app[13].stopTime = 5200us
*.host3.app[13].display-name = "type2_2"
*.host3.app[13].destPort = 1001
                            
*.host3.app[14].typename = "UdpBasicApp"
*.host3.app[14].destAddresses = "host2"
*.host3.app[14].source.packetNameFormat = "%M-%m-%c"
*.host3.app[14].source.displayStringTextFormat = "sent %p pk (%l)"
*.host3.app[14].messageLength = 500B
*.host3.app[14].sendInterval = 100us
*.host3.app[14].startTime = 5300us
*.host3.app[14].stopTime = 5400us
*.host3.app[14].display-name = "type2_2"
*.host3.app[14].destPort = 1001
                            
*.host3.app[15].typename = "UdpBasicApp"
*.host3.app[15].destAddresses = "host2"
*.host3.app[15].source.packetNameFormat = "%M-%m-%c"
*.host3.app[15].source.displayStringTextFormat = "sent %p pk (%l)"
*.host3.app[15].messageLength = 500B
*.host3.app[15].sendInterval = 100us
*.host3.app[15].startTime = 5500us
*.host3.app[15].stopTime = 6000us
*.host3.app[15].display-name = "type2_2"
*.host3.app[15].destPort = 1001
                            
*.host3.app[16].typename = "UdpBasicApp"
*.host3.app[16].destAddresses = "host2"
*.host3.app[16].source.packetNameFormat = "%M-%m-%c"
*.host3.app[16].source.displayStringTextFormat = "sent %p pk (%l)"
*.host3.app[16].messageLength = 500B
*.host3.app[16].sendInterval = 100us
*.host3.app[16].startTime = 6100us
*.host3.app[16].stopTime = 6400us
*.host3.app[16].display-name = "type2_2"
*.host3.app[16].destPort = 1001
                            
*.host3.app[17].typename = "UdpBasicApp"
*.host3.app[17].destAddresses = "host2"
*.host3.app[17].source.packetNameFormat = "%M-%m-%c"
*.host3.app[17].source.displayStringTextFormat = "sent %p pk (%l)"
*.host3.app[17].messageLength = 500B
*.host3.app[17].sendInterval = 100us
*.host3.app[17].startTime = 6500us
*.host3.app[17].stopTime = 6600us
*.host3.app[17].display-name = "type2_2"
*.host3.app[17].destPort = 1001
                            
*.host3.app[18].typename = "UdpBasicApp"
*.host3.app[18].destAddresses = "host2"
*.host3.app[18].source.packetNameFormat = "%M-%m-%c"
*.host3.app[18].source.displayStringTextFormat = "sent %p pk (%l)"
*.host3.app[18].messageLength = 500B
*.host3.app[18].sendInterval = 100us
*.host3.app[18].startTime = 6700us
*.host3.app[18].stopTime = 6900us
*.host3.app[18].display-name = "type2_2"
*.host3.app[18].destPort = 1001
                            
*.host3.app[19].typename = "UdpBasicApp"
*.host3.app[19].destAddresses = "host2"
*.host3.app[19].source.packetNameFormat = "%M-%m-%c"
*.host3.app[19].source.displayStringTextFormat = "sent %p pk (%l)"
*.host3.app[19].messageLength = 500B
*.host3.app[19].sendInterval = 100us
*.host3.app[19].startTime = 7000us
*.host3.app[19].stopTime = 7100us
*.host3.app[19].display-name = "type2_2"
*.host3.app[19].destPort = 1001
                            
*.host3.app[20].typename = "UdpBasicApp"
*.host3.app[20].destAddresses = "host2"
*.host3.app[20].source.packetNameFormat = "%M-%m-%c"
*.host3.app[20].source.displayStringTextFormat = "sent %p pk (%l)"
*.host3.app[20].messageLength = 500B
*.host3.app[20].sendInterval = 100us
*.host3.app[20].startTime = 7200us
*.host3.app[20].stopTime = 7400us
*.host3.app[20].display-name = "type2_2"
*.host3.app[20].destPort = 1001
                            
*.host3.app[21].typename = "UdpBasicApp"
*.host3.app[21].destAddresses = "host2"
*.host3.app[21].source.packetNameFormat = "%M-%m-%c"
*.host3.app[21].source.displayStringTextFormat = "sent %p pk (%l)"
*.host3.app[21].messageLength = 500B
*.host3.app[21].sendInterval = 100us
*.host3.app[21].startTime = 7700us
*.host3.app[21].stopTime = 8200us
*.host3.app[21].display-name = "type2_2"
*.host3.app[21].destPort = 1001
                            
*.host3.app[22].typename = "UdpBasicApp"
*.host3.app[22].destAddresses = "host2"
*.host3.app[22].source.packetNameFormat = "%M-%m-%c"
*.host3.app[22].source.displayStringTextFormat = "sent %p pk (%l)"
*.host3.app[22].messageLength = 500B
*.host3.app[22].sendInterval = 100us
*.host3.app[22].startTime = 8400us
*.host3.app[22].stopTime = 8500us
*.host3.app[22].display-name = "type2_2"
*.host3.app[22].destPort = 1001
                            
*.host3.app[23].typename = "UdpBasicApp"
*.host3.app[23].destAddresses = "host2"
*.host3.app[23].source.packetNameFormat = "%M-%m-%c"
*.host3.app[23].source.displayStringTextFormat = "sent %p pk (%l)"
*.host3.app[23].messageLength = 500B
*.host3.app[23].sendInterval = 100us
*.host3.app[23].startTime = 8900us
*.host3.app[23].stopTime = 9200us
*.host3.app[23].display-name = "type2_2"
*.host3.app[23].destPort = 1001
                            
*.host3.app[24].typename = "UdpBasicApp"
*.host3.app[24].destAddresses = "host2"
*.host3.app[24].source.packetNameFormat = "%M-%m-%c"
*.host3.app[24].source.displayStringTextFormat = "sent %p pk (%l)"
*.host3.app[24].messageLength = 500B
*.host3.app[24].sendInterval = 100us
*.host3.app[24].startTime = 9400us
*.host3.app[24].stopTime = 9600us
*.host3.app[24].display-name = "type2_2"
*.host3.app[24].destPort = 1001
                            
*.host3.app[25].typename = "UdpBasicApp"
*.host3.app[25].destAddresses = "host2"
*.host3.app[25].source.packetNameFormat = "%M-%m-%c"
*.host3.app[25].source.displayStringTextFormat = "sent %p pk (%l)"
*.host3.app[25].messageLength = 500B
*.host3.app[25].sendInterval = 100us
*.host3.app[25].startTime = 9700us
*.host3.app[25].stopTime = 9900us
*.host3.app[25].display-name = "type2_2"
*.host3.app[25].destPort = 1001
                            
*.host4.numApps = 2

*.host4.app[0].typename = "UdpSinkApp"
*.host4.app[0].io.localPort = 1000
                        
*.host4.app[1].typename = "UdpSinkApp"
*.host4.app[1].io.localPort = 1001
                        
# seamless stream redundancy configuration
*.streamRedundancyConfigurator.configuration = [
    {
        name: "S1-0", 
        packetFilter: "*-type1_0-*", 
        source: "host0", 
        destination: "host2",
        trees: [[["host0", "switch0", "switch4", "switch2", "host2"]]]
    },
    {
        name: "S1-1", 
        packetFilter: "*-type1_1-*", 
        source: "host0", 
        destination: "host4",
        trees: [[["host0", "switch0", "switch1", "switch2", "switch3", "switch4", "host4"]]]
    },
    {
        name: "S2-0", 
        packetFilter: "*-type2_0-*", 
        source: "host0", 
        destination: "host4",
        trees: [[["host0", "switch0", "switch4", "host4"]]]
    },
    {
        name: "S2-1", 
        packetFilter: "*-type2_1-*", 
        source: "host1", 
        destination: "host0",
        trees: [[["host1", "switch1", "switch2", "switch3", "switch0", "host0"]]]
    },
    {
        name: "S2-2", 
        packetFilter: "*-type2_2-*", 
        source: "host3", 
        destination: "host2",
        trees: [[["host3", "switch3", "switch0", "switch1", "switch2", "host2"]]]
    }]
