
[General]
network = TSN_multipath
sim-time-limit = 10ms

# disable automatic MAC forwarding table configuration
*.macForwardingTableConfigurator.typename = ""

# enable frame replication and elimination
*.*.hasStreamRedundancy = true

# enable stream policing in layer 2
*.*.bridging.streamRelay.typename = "StreamRelayLayer"
*.*.bridging.streamCoder.typename = "StreamCoderLayer"

# enable automatic stream redundancy configurator
*.streamRedundancyConfigurator.typename = "StreamRedundancyConfigurator"

*.host0.eth[0].bitrate = 100Mbps
*.switch0.eth[0].bitrate = 100Mbps
*.switch0.eth[1].bitrate = 100Mbps
*.switch0.eth[2].bitrate = 80Mbps
*.switch0.eth[3].bitrate = 130Mbps
*.switch0.eth[4].bitrate = 120Mbps
*.switch0.eth[5].bitrate = 100Mbps
*.host1.eth[0].bitrate = 100Mbps
*.switch1.eth[0].bitrate = 100Mbps
*.switch1.eth[1].bitrate = 100Mbps
*.switch1.eth[2].bitrate = 100Mbps
*.switch1.eth[3].bitrate = 80Mbps
*.host2.eth[0].bitrate = 100Mbps
*.switch2.eth[0].bitrate = 100Mbps
*.switch2.eth[1].bitrate = 100Mbps
*.switch2.eth[2].bitrate = 100Mbps
*.switch2.eth[3].bitrate = 130Mbps
*.switch2.eth[4].bitrate = 200Mbps
*.host3.eth[0].bitrate = 100Mbps
*.switch3.eth[0].bitrate = 100Mbps
*.switch3.eth[1].bitrate = 80Mbps
*.switch3.eth[2].bitrate = 100Mbps
*.switch3.eth[3].bitrate = 120Mbps
*.switch3.eth[4].bitrate = 200Mbps
*.host4.eth[0].bitrate = 100Mbps
*.switch4.eth[0].bitrate = 100Mbps
*.switch4.eth[1].bitrate = 80Mbps
*.switch4.eth[2].bitrate = 200Mbps
*.switch4.eth[3].bitrate = 100Mbps
*.switch4.eth[4].bitrate = 200Mbps

# apps
            
*.host0.numApps = 9

*.host0.app[0].typename = "UdpSourceApp"
*.host0.app[0].io.destAddress = "host2"
*.host0.app[0].source.packetNameFormat = "%M-%m-%c"
*.host0.app[0].source.displayStringTextFormat = "sent %p pk (%l)"
*.host0.app[0].source.packetLength = 250B
*.host0.app[0].source.productionInterval = 100us
*.host0.app[0].display-name = "type1_0"
*.host0.app[0].io.destPort = 1000
                            
*.host0.app[1].typename = "UdpSourceApp"
*.host0.app[1].io.destAddress = "host4"
*.host0.app[1].source.packetNameFormat = "%M-%m-%c"
*.host0.app[1].source.displayStringTextFormat = "sent %p pk (%l)"
*.host0.app[1].source.packetLength = 200B
*.host0.app[1].source.productionInterval = 100us
*.host0.app[1].display-name = "type1_1"
*.host0.app[1].io.destPort = 1000
                            
*.host0.app[2].typename = "UdpBasicApp"
*.host0.app[2].destAddresses = "host4"
*.host0.app[2].source.packetNameFormat = "%M-%m-%c"
*.host0.app[2].source.displayStringTextFormat = "sent %p pk (%l)"
*.host0.app[2].messageLength = 500B
*.host0.app[2].sendInterval = 100us
*.host0.app[2].startTime = 0us
*.host0.app[2].stopTime = 100us
*.host0.app[2].display-name = "type2_0"
*.host0.app[2].destPort = 1001
                            
*.host0.app[3].typename = "UdpBasicApp"
*.host0.app[3].destAddresses = "host4"
*.host0.app[3].source.packetNameFormat = "%M-%m-%c"
*.host0.app[3].source.displayStringTextFormat = "sent %p pk (%l)"
*.host0.app[3].messageLength = 500B
*.host0.app[3].sendInterval = 100us
*.host0.app[3].startTime = 400us
*.host0.app[3].stopTime = 500us
*.host0.app[3].display-name = "type2_0"
*.host0.app[3].destPort = 1001
                            
*.host0.app[4].typename = "UdpBasicApp"
*.host0.app[4].destAddresses = "host4"
*.host0.app[4].source.packetNameFormat = "%M-%m-%c"
*.host0.app[4].source.displayStringTextFormat = "sent %p pk (%l)"
*.host0.app[4].messageLength = 500B
*.host0.app[4].sendInterval = 100us
*.host0.app[4].startTime = 700us
*.host0.app[4].stopTime = 800us
*.host0.app[4].display-name = "type2_0"
*.host0.app[4].destPort = 1001
                            
*.host0.app[5].typename = "UdpBasicApp"
*.host0.app[5].destAddresses = "host4"
*.host0.app[5].source.packetNameFormat = "%M-%m-%c"
*.host0.app[5].source.displayStringTextFormat = "sent %p pk (%l)"
*.host0.app[5].messageLength = 500B
*.host0.app[5].sendInterval = 100us
*.host0.app[5].startTime = 1100us
*.host0.app[5].stopTime = 1200us
*.host0.app[5].display-name = "type2_0"
*.host0.app[5].destPort = 1001
                            
*.host0.app[6].typename = "UdpBasicApp"
*.host0.app[6].destAddresses = "host4"
*.host0.app[6].source.packetNameFormat = "%M-%m-%c"
*.host0.app[6].source.displayStringTextFormat = "sent %p pk (%l)"
*.host0.app[6].messageLength = 500B
*.host0.app[6].sendInterval = 100us
*.host0.app[6].startTime = 1500us
*.host0.app[6].stopTime = 1600us
*.host0.app[6].display-name = "type2_0"
*.host0.app[6].destPort = 1001
                            
*.host0.app[7].typename = "UdpBasicApp"
*.host0.app[7].destAddresses = "host4"
*.host0.app[7].source.packetNameFormat = "%M-%m-%c"
*.host0.app[7].source.displayStringTextFormat = "sent %p pk (%l)"
*.host0.app[7].messageLength = 500B
*.host0.app[7].sendInterval = 100us
*.host0.app[7].startTime = 1700us
*.host0.app[7].stopTime = 1900us
*.host0.app[7].display-name = "type2_0"
*.host0.app[7].destPort = 1001
                            
*.host0.app[8].typename = "UdpSinkApp"
*.host0.app[8].io.localPort = 1000
                        
*.host1.numApps = 4

*.host1.app[0].typename = "UdpBasicApp"
*.host1.app[0].destAddresses = "host0"
*.host1.app[0].source.packetNameFormat = "%M-%m-%c"
*.host1.app[0].source.displayStringTextFormat = "sent %p pk (%l)"
*.host1.app[0].messageLength = 1000B
*.host1.app[0].sendInterval = 100us
*.host1.app[0].startTime = 100us
*.host1.app[0].stopTime = 800us
*.host1.app[0].display-name = "type2_1"
*.host1.app[0].destPort = 1000
                            
*.host1.app[1].typename = "UdpBasicApp"
*.host1.app[1].destAddresses = "host0"
*.host1.app[1].source.packetNameFormat = "%M-%m-%c"
*.host1.app[1].source.displayStringTextFormat = "sent %p pk (%l)"
*.host1.app[1].messageLength = 1000B
*.host1.app[1].sendInterval = 100us
*.host1.app[1].startTime = 900us
*.host1.app[1].stopTime = 1300us
*.host1.app[1].display-name = "type2_1"
*.host1.app[1].destPort = 1000
                            
*.host1.app[2].typename = "UdpBasicApp"
*.host1.app[2].destAddresses = "host0"
*.host1.app[2].source.packetNameFormat = "%M-%m-%c"
*.host1.app[2].source.displayStringTextFormat = "sent %p pk (%l)"
*.host1.app[2].messageLength = 1000B
*.host1.app[2].sendInterval = 100us
*.host1.app[2].startTime = 1400us
*.host1.app[2].stopTime = 1700us
*.host1.app[2].display-name = "type2_1"
*.host1.app[2].destPort = 1000
                            
*.host1.app[3].typename = "UdpBasicApp"
*.host1.app[3].destAddresses = "host0"
*.host1.app[3].source.packetNameFormat = "%M-%m-%c"
*.host1.app[3].source.displayStringTextFormat = "sent %p pk (%l)"
*.host1.app[3].messageLength = 1000B
*.host1.app[3].sendInterval = 100us
*.host1.app[3].startTime = 1800us
*.host1.app[3].stopTime = 1900us
*.host1.app[3].display-name = "type2_1"
*.host1.app[3].destPort = 1000
                            
*.host2.numApps = 2

*.host2.app[0].typename = "UdpSinkApp"
*.host2.app[0].io.localPort = 1000
                        
*.host2.app[1].typename = "UdpSinkApp"
*.host2.app[1].io.localPort = 1001
                        
*.host3.numApps = 3

*.host3.app[0].typename = "UdpBasicApp"
*.host3.app[0].destAddresses = "host2"
*.host3.app[0].source.packetNameFormat = "%M-%m-%c"
*.host3.app[0].source.displayStringTextFormat = "sent %p pk (%l)"
*.host3.app[0].messageLength = 500B
*.host3.app[0].sendInterval = 100us
*.host3.app[0].startTime = 0us
*.host3.app[0].stopTime = 100us
*.host3.app[0].display-name = "type2_2"
*.host3.app[0].destPort = 1001
                            
*.host3.app[1].typename = "UdpBasicApp"
*.host3.app[1].destAddresses = "host2"
*.host3.app[1].source.packetNameFormat = "%M-%m-%c"
*.host3.app[1].source.displayStringTextFormat = "sent %p pk (%l)"
*.host3.app[1].messageLength = 500B
*.host3.app[1].sendInterval = 100us
*.host3.app[1].startTime = 300us
*.host3.app[1].stopTime = 1300us
*.host3.app[1].display-name = "type2_2"
*.host3.app[1].destPort = 1001
                            
*.host3.app[2].typename = "UdpBasicApp"
*.host3.app[2].destAddresses = "host2"
*.host3.app[2].source.packetNameFormat = "%M-%m-%c"
*.host3.app[2].source.displayStringTextFormat = "sent %p pk (%l)"
*.host3.app[2].messageLength = 500B
*.host3.app[2].sendInterval = 100us
*.host3.app[2].startTime = 1500us
*.host3.app[2].stopTime = 2000us
*.host3.app[2].display-name = "type2_2"
*.host3.app[2].destPort = 1001
                            
*.host4.numApps = 2

*.host4.app[0].typename = "UdpSinkApp"
*.host4.app[0].io.localPort = 1000
                        
*.host4.app[1].typename = "UdpSinkApp"
*.host4.app[1].io.localPort = 1001
                        
# seamless stream redundancy configuration
*.streamRedundancyConfigurator.configuration = [
    {
        name: "S1-0", 
        packetFilter: "*-type1_0-*", 
        source: "host0", 
        destination: "host2",
        trees: [[["host0", "switch0", "switch1", "switch2", "host2"]]]
    },
    {
        name: "S1-1", 
        packetFilter: "*-type1_1-*", 
        source: "host0", 
        destination: "host4",
        trees: [[["host0", "switch0", "switch1", "switch3", "switch4", "host4"]]]
    },
    {
        name: "S2-0", 
        packetFilter: "*-type1_0-*", 
        source: "host0", 
        destination: "host4",
        trees: [[["host0", "switch0", "switch1", "switch3", "switch4", "host4"]]]
    },
    {
        name: "S2-1", 
        packetFilter: "*-type1_1-*", 
        source: "host1", 
        destination: "host0",
        trees: [[["host1", "switch1", "switch3", "switch4", "switch2", "switch0", "host0"]]]
    },
    {
        name: "S2-2", 
        packetFilter: "*-type1_2-*", 
        source: "host3", 
        destination: "host2",
        trees: [[["host3", "switch3", "switch4", "switch2", "host2"]]]
    }]
