
[General]
network = TSN_multipath
sim-time-limit = 10ms

# disable automatic MAC forwarding table configuration
*.macForwardingTableConfigurator.typename = ""

# enable frame replication and elimination
*.*.hasStreamRedundancy = true

# enable stream policing in layer 2
*.*.bridging.streamRelay.typename = "StreamRelayLayer"
*.*.bridging.streamCoder.typename = "StreamCoderLayer"

# enable automatic stream redundancy configurator
*.streamRedundancyConfigurator.typename = "StreamRedundancyConfigurator"

*.host0.eth[0].bitrate = 100Mbps
*.switch0.eth[0].bitrate = 100Mbps
*.switch0.eth[1].bitrate = 100Mbps
*.switch0.eth[2].bitrate = 80Mbps
*.switch0.eth[3].bitrate = 130Mbps
*.switch0.eth[4].bitrate = 120Mbps
*.switch0.eth[5].bitrate = 100Mbps
*.host1.eth[0].bitrate = 100Mbps
*.switch1.eth[0].bitrate = 100Mbps
*.switch1.eth[1].bitrate = 100Mbps
*.switch1.eth[2].bitrate = 100Mbps
*.switch1.eth[3].bitrate = 80Mbps
*.host2.eth[0].bitrate = 100Mbps
*.switch2.eth[0].bitrate = 100Mbps
*.switch2.eth[1].bitrate = 100Mbps
*.switch2.eth[2].bitrate = 100Mbps
*.switch2.eth[3].bitrate = 130Mbps
*.switch2.eth[4].bitrate = 200Mbps
*.host3.eth[0].bitrate = 100Mbps
*.switch3.eth[0].bitrate = 100Mbps
*.switch3.eth[1].bitrate = 80Mbps
*.switch3.eth[2].bitrate = 100Mbps
*.switch3.eth[3].bitrate = 120Mbps
*.switch3.eth[4].bitrate = 200Mbps
*.host4.eth[0].bitrate = 100Mbps
*.switch4.eth[0].bitrate = 100Mbps
*.switch4.eth[1].bitrate = 80Mbps
*.switch4.eth[2].bitrate = 200Mbps
*.switch4.eth[3].bitrate = 100Mbps
*.switch4.eth[4].bitrate = 200Mbps

# Apps
*.host1.numApps = 1
*.host1.app[0].typename = "UdpSourceApp"
*.host1.app[0].io.destAddress = "host0"
*.host1.app[0].source.packetNameFormat = "%M-%m-%c"
*.host1.app[0].source.displayStringTextFormat = "sent %p pk (%l)"
*.host1.app[0].source.packetLength = 1000B
*.host1.app[0].source.productionInterval = 100us
*.host1.app[0].display-name = "type2_1"
*.host1.app[0].io.destPort = 1000

*.host0.numApps = 1
*.host0.app[0].typename = "UdpSinkApp"
*.host0.app[0].io.localPort = 1000

# seamless stream redundancy configuration
*.streamRedundancyConfigurator.configuration = [
    {
        name: "shortest_path", 
        packetFilter: "*-type2_1-*", 
        source: "host1", 
        destination: "host0",
        trees: [[["host1", "switch1", "switch2", "switch0", "host0"]]]
    }]
