[General]
network = TSN_multipath
sim-time-limit = 100ms
*.macForwardingTableConfigurator.typename = ""
*.*.hasStreamRedundancy = true
*.*.bridging.streamRelay.typename = "StreamRelayLayer"
*.*.bridging.streamCoder.typename = "StreamCoderLayer"
*.streamRedundancyConfigurator.typename = "StreamRedundancyConfigurator"
*.host0.eth[0].bitrate = 1000Mbps
*.switch0.eth[0].bitrate = 1000Mbps
*.switch0.eth[1].bitrate = 1300Mbps
*.switch0.eth[2].bitrate = 1600Mbps
*.switch0.eth[3].bitrate = 1700Mbps
*.switch0.eth[4].bitrate = 1500Mbps
*.switch0.eth[5].bitrate = 1200Mbps
*.switch0.eth[6].bitrate = 1200Mbps
*.switch0.eth[7].bitrate = 1600Mbps
*.switch0.eth[8].bitrate = 2400Mbps
*.switch0.eth[9].bitrate = 1200Mbps
*.switch0.eth[10].bitrate = 1400Mbps
*.host1.eth[0].bitrate = 1000Mbps
*.switch1.eth[0].bitrate = 1000Mbps
*.switch1.eth[1].bitrate = 1800Mbps
*.switch1.eth[2].bitrate = 1800Mbps
*.switch1.eth[3].bitrate = 2000Mbps
*.switch1.eth[4].bitrate = 1200Mbps
*.switch1.eth[5].bitrate = 1500Mbps
*.switch1.eth[6].bitrate = 1500Mbps
*.switch1.eth[7].bitrate = 1800Mbps
*.switch1.eth[8].bitrate = 2200Mbps
*.switch1.eth[9].bitrate = 2100Mbps
*.switch1.eth[10].bitrate = 1700Mbps
*.switch1.eth[11].bitrate = 1300Mbps
*.host2.eth[0].bitrate = 1000Mbps
*.switch2.eth[0].bitrate = 1000Mbps
*.switch2.eth[1].bitrate = 1300Mbps
*.switch2.eth[2].bitrate = 2400Mbps
*.switch2.eth[3].bitrate = 1700Mbps
*.switch2.eth[4].bitrate = 1300Mbps
*.switch2.eth[5].bitrate = 1600Mbps
*.switch2.eth[6].bitrate = 2400Mbps
*.switch2.eth[7].bitrate = 1900Mbps
*.switch2.eth[8].bitrate = 1500Mbps
*.switch2.eth[9].bitrate = 1500Mbps
*.switch2.eth[10].bitrate = 2200Mbps
*.switch2.eth[11].bitrate = 1200Mbps
*.host3.eth[0].bitrate = 1000Mbps
*.switch3.eth[0].bitrate = 1000Mbps
*.switch3.eth[1].bitrate = 1600Mbps
*.switch3.eth[2].bitrate = 1800Mbps
*.switch3.eth[3].bitrate = 1700Mbps
*.switch3.eth[4].bitrate = 1200Mbps
*.switch3.eth[5].bitrate = 1500Mbps
*.switch3.eth[6].bitrate = 1900Mbps
*.switch3.eth[7].bitrate = 1900Mbps
*.switch3.eth[8].bitrate = 1200Mbps
*.switch3.eth[9].bitrate = 1400Mbps
*.switch3.eth[10].bitrate = 2400Mbps
*.switch3.eth[11].bitrate = 2200Mbps
*.switch3.eth[12].bitrate = 1200Mbps
*.switch3.eth[13].bitrate = 2200Mbps
*.host4.eth[0].bitrate = 1000Mbps
*.switch4.eth[0].bitrate = 1000Mbps
*.switch4.eth[1].bitrate = 1800Mbps
*.switch4.eth[2].bitrate = 1500Mbps
*.switch4.eth[3].bitrate = 2000Mbps
*.switch4.eth[4].bitrate = 1400Mbps
*.switch4.eth[5].bitrate = 2200Mbps
*.switch4.eth[6].bitrate = 1400Mbps
*.switch4.eth[7].bitrate = 1400Mbps
*.switch4.eth[8].bitrate = 2200Mbps
*.switch4.eth[9].bitrate = 2100Mbps
*.host5.eth[0].bitrate = 1000Mbps
*.switch5.eth[0].bitrate = 1000Mbps
*.switch5.eth[1].bitrate = 1700Mbps
*.switch5.eth[2].bitrate = 1800Mbps
*.switch5.eth[3].bitrate = 1300Mbps
*.switch5.eth[4].bitrate = 1900Mbps
*.switch5.eth[5].bitrate = 2000Mbps
*.switch5.eth[6].bitrate = 2200Mbps
*.switch5.eth[7].bitrate = 2400Mbps
*.switch5.eth[8].bitrate = 2100Mbps
*.switch5.eth[9].bitrate = 1400Mbps
*.host6.eth[0].bitrate = 1000Mbps
*.switch6.eth[0].bitrate = 1000Mbps
*.switch6.eth[1].bitrate = 1500Mbps
*.switch6.eth[2].bitrate = 2000Mbps
*.switch6.eth[3].bitrate = 1600Mbps
*.switch6.eth[4].bitrate = 1200Mbps
*.switch6.eth[5].bitrate = 1400Mbps
*.switch6.eth[6].bitrate = 2200Mbps
*.switch6.eth[7].bitrate = 1500Mbps
*.switch6.eth[8].bitrate = 2200Mbps
*.switch6.eth[9].bitrate = 2100Mbps
*.switch6.eth[10].bitrate = 2400Mbps
*.switch6.eth[11].bitrate = 1400Mbps
*.switch6.eth[12].bitrate = 2200Mbps
*.switch6.eth[13].bitrate = 2200Mbps
*.switch6.eth[14].bitrate = 1300Mbps
*.host7.eth[0].bitrate = 1000Mbps
*.switch7.eth[0].bitrate = 1000Mbps
*.switch7.eth[1].bitrate = 1200Mbps
*.switch7.eth[2].bitrate = 1200Mbps
*.switch7.eth[3].bitrate = 2400Mbps
*.switch7.eth[4].bitrate = 1400Mbps
*.switch7.eth[5].bitrate = 2200Mbps
*.switch7.eth[6].bitrate = 1400Mbps
*.switch7.eth[7].bitrate = 1400Mbps
*.switch7.eth[8].bitrate = 2100Mbps
*.switch7.eth[9].bitrate = 2200Mbps
*.switch7.eth[10].bitrate = 1200Mbps
*.switch7.eth[11].bitrate = 2100Mbps
*.switch7.eth[12].bitrate = 2200Mbps
*.switch7.eth[13].bitrate = 1700Mbps
*.switch7.eth[14].bitrate = 2300Mbps
*.switch7.eth[15].bitrate = 2300Mbps
*.switch7.eth[16].bitrate = 2300Mbps
*.host8.eth[0].bitrate = 1000Mbps
*.switch8.eth[0].bitrate = 1000Mbps
*.switch8.eth[1].bitrate = 1200Mbps
*.switch8.eth[2].bitrate = 1500Mbps
*.switch8.eth[3].bitrate = 1400Mbps
*.switch8.eth[4].bitrate = 1700Mbps
*.switch8.eth[5].bitrate = 1700Mbps
*.switch8.eth[6].bitrate = 1200Mbps
*.switch8.eth[7].bitrate = 2200Mbps
*.switch8.eth[8].bitrate = 1400Mbps
*.switch8.eth[9].bitrate = 1300Mbps
*.switch8.eth[10].bitrate = 2300Mbps
*.switch8.eth[11].bitrate = 2200Mbps
*.host9.eth[0].bitrate = 1000Mbps
*.switch9.eth[0].bitrate = 1000Mbps
*.switch9.eth[1].bitrate = 1600Mbps
*.switch9.eth[2].bitrate = 2400Mbps
*.switch9.eth[3].bitrate = 1400Mbps
*.switch9.eth[4].bitrate = 2200Mbps
*.switch9.eth[5].bitrate = 2300Mbps
*.switch9.eth[6].bitrate = 2200Mbps
*.switch9.eth[7].bitrate = 1300Mbps
*.switch9.eth[8].bitrate = 2300Mbps
*.host0.numApps = 15
*.host0.app[0].typename = "UdpSinkApp"
*.host0.app[0].io.localPort = 1000
*.host0.app[1].typename = "UdpBasicApp"
*.host0.app[1].destAddresses = "host7"
*.host0.app[1].source.packetNameFormat = "%M-%m-%c"
*.host0.app[1].source.displayStringTextFormat = "sent %p pk (%l)"
*.host0.app[1].messageLength = 20B
*.host0.app[1].sendInterval = 1ms
*.host0.app[1].startTime = 0ms
*.host0.app[1].stopTime = 11ms
*.host0.app[1].display-name = "type2_0"
*.host0.app[1].destPort = 1002
*.host0.app[2].typename = "UdpBasicApp"
*.host0.app[2].destAddresses = "host7"
*.host0.app[2].source.packetNameFormat = "%M-%m-%c"
*.host0.app[2].source.displayStringTextFormat = "sent %p pk (%l)"
*.host0.app[2].messageLength = 20B
*.host0.app[2].sendInterval = 1ms
*.host0.app[2].startTime = 18ms
*.host0.app[2].stopTime = 22ms
*.host0.app[2].display-name = "type2_0"
*.host0.app[2].destPort = 1002
*.host0.app[3].typename = "UdpBasicApp"
*.host0.app[3].destAddresses = "host7"
*.host0.app[3].source.packetNameFormat = "%M-%m-%c"
*.host0.app[3].source.displayStringTextFormat = "sent %p pk (%l)"
*.host0.app[3].messageLength = 20B
*.host0.app[3].sendInterval = 1ms
*.host0.app[3].startTime = 34ms
*.host0.app[3].stopTime = 39ms
*.host0.app[3].display-name = "type2_0"
*.host0.app[3].destPort = 1002
*.host0.app[4].typename = "UdpBasicApp"
*.host0.app[4].destAddresses = "host7"
*.host0.app[4].source.packetNameFormat = "%M-%m-%c"
*.host0.app[4].source.displayStringTextFormat = "sent %p pk (%l)"
*.host0.app[4].messageLength = 20B
*.host0.app[4].sendInterval = 1ms
*.host0.app[4].startTime = 43ms
*.host0.app[4].stopTime = 50ms
*.host0.app[4].display-name = "type2_0"
*.host0.app[4].destPort = 1002
*.host0.app[5].typename = "UdpBasicApp"
*.host0.app[5].destAddresses = "host7"
*.host0.app[5].source.packetNameFormat = "%M-%m-%c"
*.host0.app[5].source.displayStringTextFormat = "sent %p pk (%l)"
*.host0.app[5].messageLength = 20B
*.host0.app[5].sendInterval = 1ms
*.host0.app[5].startTime = 68ms
*.host0.app[5].stopTime = 70ms
*.host0.app[5].display-name = "type2_0"
*.host0.app[5].destPort = 1002
*.host0.app[6].typename = "UdpBasicApp"
*.host0.app[6].destAddresses = "host7"
*.host0.app[6].source.packetNameFormat = "%M-%m-%c"
*.host0.app[6].source.displayStringTextFormat = "sent %p pk (%l)"
*.host0.app[6].messageLength = 20B
*.host0.app[6].sendInterval = 1ms
*.host0.app[6].startTime = 81ms
*.host0.app[6].stopTime = 83ms
*.host0.app[6].display-name = "type2_0"
*.host0.app[6].destPort = 1002
*.host0.app[7].typename = "UdpBasicApp"
*.host0.app[7].destAddresses = "host7"
*.host0.app[7].source.packetNameFormat = "%M-%m-%c"
*.host0.app[7].source.displayStringTextFormat = "sent %p pk (%l)"
*.host0.app[7].messageLength = 20B
*.host0.app[7].sendInterval = 1ms
*.host0.app[7].startTime = 94ms
*.host0.app[7].stopTime = 100ms
*.host0.app[7].display-name = "type2_0"
*.host0.app[7].destPort = 1002
*.host0.app[8].typename = "UdpBasicApp"
*.host0.app[8].destAddresses = "host2"
*.host0.app[8].source.packetNameFormat = "%M-%m-%c"
*.host0.app[8].source.displayStringTextFormat = "sent %p pk (%l)"
*.host0.app[8].messageLength = 20B
*.host0.app[8].sendInterval = 1ms
*.host0.app[8].startTime = 13ms
*.host0.app[8].stopTime = 15ms
*.host0.app[8].display-name = "type2_9"
*.host0.app[8].destPort = 1005
*.host0.app[9].typename = "UdpBasicApp"
*.host0.app[9].destAddresses = "host2"
*.host0.app[9].source.packetNameFormat = "%M-%m-%c"
*.host0.app[9].source.displayStringTextFormat = "sent %p pk (%l)"
*.host0.app[9].messageLength = 20B
*.host0.app[9].sendInterval = 1ms
*.host0.app[9].startTime = 16ms
*.host0.app[9].stopTime = 17ms
*.host0.app[9].display-name = "type2_9"
*.host0.app[9].destPort = 1005
*.host0.app[10].typename = "UdpBasicApp"
*.host0.app[10].destAddresses = "host2"
*.host0.app[10].source.packetNameFormat = "%M-%m-%c"
*.host0.app[10].source.displayStringTextFormat = "sent %p pk (%l)"
*.host0.app[10].messageLength = 20B
*.host0.app[10].sendInterval = 1ms
*.host0.app[10].startTime = 35ms
*.host0.app[10].stopTime = 39ms
*.host0.app[10].display-name = "type2_9"
*.host0.app[10].destPort = 1005
*.host0.app[11].typename = "UdpBasicApp"
*.host0.app[11].destAddresses = "host2"
*.host0.app[11].source.packetNameFormat = "%M-%m-%c"
*.host0.app[11].source.displayStringTextFormat = "sent %p pk (%l)"
*.host0.app[11].messageLength = 20B
*.host0.app[11].sendInterval = 1ms
*.host0.app[11].startTime = 40ms
*.host0.app[11].stopTime = 47ms
*.host0.app[11].display-name = "type2_9"
*.host0.app[11].destPort = 1005
*.host0.app[12].typename = "UdpBasicApp"
*.host0.app[12].destAddresses = "host2"
*.host0.app[12].source.packetNameFormat = "%M-%m-%c"
*.host0.app[12].source.displayStringTextFormat = "sent %p pk (%l)"
*.host0.app[12].messageLength = 20B
*.host0.app[12].sendInterval = 1ms
*.host0.app[12].startTime = 58ms
*.host0.app[12].stopTime = 66ms
*.host0.app[12].display-name = "type2_9"
*.host0.app[12].destPort = 1005
*.host0.app[13].typename = "UdpBasicApp"
*.host0.app[13].destAddresses = "host2"
*.host0.app[13].source.packetNameFormat = "%M-%m-%c"
*.host0.app[13].source.displayStringTextFormat = "sent %p pk (%l)"
*.host0.app[13].messageLength = 20B
*.host0.app[13].sendInterval = 1ms
*.host0.app[13].startTime = 69ms
*.host0.app[13].stopTime = 78ms
*.host0.app[13].display-name = "type2_9"
*.host0.app[13].destPort = 1005
*.host0.app[14].typename = "UdpBasicApp"
*.host0.app[14].destAddresses = "host2"
*.host0.app[14].source.packetNameFormat = "%M-%m-%c"
*.host0.app[14].source.displayStringTextFormat = "sent %p pk (%l)"
*.host0.app[14].messageLength = 20B
*.host0.app[14].sendInterval = 1ms
*.host0.app[14].startTime = 85ms
*.host0.app[14].stopTime = 94ms
*.host0.app[14].display-name = "type2_9"
*.host0.app[14].destPort = 1005
*.host1.numApps = 19
*.host1.app[0].typename = "UdpSinkApp"
*.host1.app[0].io.localPort = 1000
*.host1.app[1].typename = "UdpBasicApp"
*.host1.app[1].destAddresses = "host8"
*.host1.app[1].source.packetNameFormat = "%M-%m-%c"
*.host1.app[1].source.displayStringTextFormat = "sent %p pk (%l)"
*.host1.app[1].messageLength = 19B
*.host1.app[1].sendInterval = 1ms
*.host1.app[1].startTime = 13ms
*.host1.app[1].stopTime = 24ms
*.host1.app[1].display-name = "type2_1"
*.host1.app[1].destPort = 1000
*.host1.app[2].typename = "UdpBasicApp"
*.host1.app[2].destAddresses = "host8"
*.host1.app[2].source.packetNameFormat = "%M-%m-%c"
*.host1.app[2].source.displayStringTextFormat = "sent %p pk (%l)"
*.host1.app[2].messageLength = 19B
*.host1.app[2].sendInterval = 1ms
*.host1.app[2].startTime = 28ms
*.host1.app[2].stopTime = 29ms
*.host1.app[2].display-name = "type2_1"
*.host1.app[2].destPort = 1000
*.host1.app[3].typename = "UdpBasicApp"
*.host1.app[3].destAddresses = "host8"
*.host1.app[3].source.packetNameFormat = "%M-%m-%c"
*.host1.app[3].source.displayStringTextFormat = "sent %p pk (%l)"
*.host1.app[3].messageLength = 19B
*.host1.app[3].sendInterval = 1ms
*.host1.app[3].startTime = 65ms
*.host1.app[3].stopTime = 72ms
*.host1.app[3].display-name = "type2_1"
*.host1.app[3].destPort = 1000
*.host1.app[4].typename = "UdpBasicApp"
*.host1.app[4].destAddresses = "host8"
*.host1.app[4].source.packetNameFormat = "%M-%m-%c"
*.host1.app[4].source.displayStringTextFormat = "sent %p pk (%l)"
*.host1.app[4].messageLength = 19B
*.host1.app[4].sendInterval = 1ms
*.host1.app[4].startTime = 82ms
*.host1.app[4].stopTime = 98ms
*.host1.app[4].display-name = "type2_1"
*.host1.app[4].destPort = 1000
*.host1.app[5].typename = "UdpBasicApp"
*.host1.app[5].destAddresses = "host8"
*.host1.app[5].source.packetNameFormat = "%M-%m-%c"
*.host1.app[5].source.displayStringTextFormat = "sent %p pk (%l)"
*.host1.app[5].messageLength = 19B
*.host1.app[5].sendInterval = 1ms
*.host1.app[5].startTime = 99ms
*.host1.app[5].stopTime = 100ms
*.host1.app[5].display-name = "type2_1"
*.host1.app[5].destPort = 1000
*.host1.app[6].typename = "UdpBasicApp"
*.host1.app[6].destAddresses = "host8"
*.host1.app[6].source.packetNameFormat = "%M-%m-%c"
*.host1.app[6].source.displayStringTextFormat = "sent %p pk (%l)"
*.host1.app[6].messageLength = 12B
*.host1.app[6].sendInterval = 1ms
*.host1.app[6].startTime = 10ms
*.host1.app[6].stopTime = 19ms
*.host1.app[6].display-name = "type2_5"
*.host1.app[6].destPort = 1001
*.host1.app[7].typename = "UdpBasicApp"
*.host1.app[7].destAddresses = "host8"
*.host1.app[7].source.packetNameFormat = "%M-%m-%c"
*.host1.app[7].source.displayStringTextFormat = "sent %p pk (%l)"
*.host1.app[7].messageLength = 12B
*.host1.app[7].sendInterval = 1ms
*.host1.app[7].startTime = 29ms
*.host1.app[7].stopTime = 34ms
*.host1.app[7].display-name = "type2_5"
*.host1.app[7].destPort = 1001
*.host1.app[8].typename = "UdpBasicApp"
*.host1.app[8].destAddresses = "host8"
*.host1.app[8].source.packetNameFormat = "%M-%m-%c"
*.host1.app[8].source.displayStringTextFormat = "sent %p pk (%l)"
*.host1.app[8].messageLength = 12B
*.host1.app[8].sendInterval = 1ms
*.host1.app[8].startTime = 38ms
*.host1.app[8].stopTime = 40ms
*.host1.app[8].display-name = "type2_5"
*.host1.app[8].destPort = 1001
*.host1.app[9].typename = "UdpBasicApp"
*.host1.app[9].destAddresses = "host8"
*.host1.app[9].source.packetNameFormat = "%M-%m-%c"
*.host1.app[9].source.displayStringTextFormat = "sent %p pk (%l)"
*.host1.app[9].messageLength = 12B
*.host1.app[9].sendInterval = 1ms
*.host1.app[9].startTime = 47ms
*.host1.app[9].stopTime = 50ms
*.host1.app[9].display-name = "type2_5"
*.host1.app[9].destPort = 1001
*.host1.app[10].typename = "UdpBasicApp"
*.host1.app[10].destAddresses = "host8"
*.host1.app[10].source.packetNameFormat = "%M-%m-%c"
*.host1.app[10].source.displayStringTextFormat = "sent %p pk (%l)"
*.host1.app[10].messageLength = 12B
*.host1.app[10].sendInterval = 1ms
*.host1.app[10].startTime = 58ms
*.host1.app[10].stopTime = 63ms
*.host1.app[10].display-name = "type2_5"
*.host1.app[10].destPort = 1001
*.host1.app[11].typename = "UdpBasicApp"
*.host1.app[11].destAddresses = "host8"
*.host1.app[11].source.packetNameFormat = "%M-%m-%c"
*.host1.app[11].source.displayStringTextFormat = "sent %p pk (%l)"
*.host1.app[11].messageLength = 12B
*.host1.app[11].sendInterval = 1ms
*.host1.app[11].startTime = 71ms
*.host1.app[11].stopTime = 72ms
*.host1.app[11].display-name = "type2_5"
*.host1.app[11].destPort = 1001
*.host1.app[12].typename = "UdpBasicApp"
*.host1.app[12].destAddresses = "host8"
*.host1.app[12].source.packetNameFormat = "%M-%m-%c"
*.host1.app[12].source.displayStringTextFormat = "sent %p pk (%l)"
*.host1.app[12].messageLength = 12B
*.host1.app[12].sendInterval = 1ms
*.host1.app[12].startTime = 90ms
*.host1.app[12].stopTime = 100ms
*.host1.app[12].display-name = "type2_5"
*.host1.app[12].destPort = 1001
*.host1.app[13].typename = "UdpBasicApp"
*.host1.app[13].destAddresses = "host4"
*.host1.app[13].source.packetNameFormat = "%M-%m-%c"
*.host1.app[13].source.displayStringTextFormat = "sent %p pk (%l)"
*.host1.app[13].messageLength = 15B
*.host1.app[13].sendInterval = 1ms
*.host1.app[13].startTime = 8ms
*.host1.app[13].stopTime = 15ms
*.host1.app[13].display-name = "type2_7"
*.host1.app[13].destPort = 1000
*.host1.app[14].typename = "UdpBasicApp"
*.host1.app[14].destAddresses = "host4"
*.host1.app[14].source.packetNameFormat = "%M-%m-%c"
*.host1.app[14].source.displayStringTextFormat = "sent %p pk (%l)"
*.host1.app[14].messageLength = 15B
*.host1.app[14].sendInterval = 1ms
*.host1.app[14].startTime = 16ms
*.host1.app[14].stopTime = 37ms
*.host1.app[14].display-name = "type2_7"
*.host1.app[14].destPort = 1000
*.host1.app[15].typename = "UdpBasicApp"
*.host1.app[15].destAddresses = "host4"
*.host1.app[15].source.packetNameFormat = "%M-%m-%c"
*.host1.app[15].source.displayStringTextFormat = "sent %p pk (%l)"
*.host1.app[15].messageLength = 15B
*.host1.app[15].sendInterval = 1ms
*.host1.app[15].startTime = 45ms
*.host1.app[15].stopTime = 53ms
*.host1.app[15].display-name = "type2_7"
*.host1.app[15].destPort = 1000
*.host1.app[16].typename = "UdpBasicApp"
*.host1.app[16].destAddresses = "host4"
*.host1.app[16].source.packetNameFormat = "%M-%m-%c"
*.host1.app[16].source.displayStringTextFormat = "sent %p pk (%l)"
*.host1.app[16].messageLength = 15B
*.host1.app[16].sendInterval = 1ms
*.host1.app[16].startTime = 78ms
*.host1.app[16].stopTime = 89ms
*.host1.app[16].display-name = "type2_7"
*.host1.app[16].destPort = 1000
*.host1.app[17].typename = "UdpBasicApp"
*.host1.app[17].destAddresses = "host4"
*.host1.app[17].source.packetNameFormat = "%M-%m-%c"
*.host1.app[17].source.displayStringTextFormat = "sent %p pk (%l)"
*.host1.app[17].messageLength = 15B
*.host1.app[17].sendInterval = 1ms
*.host1.app[17].startTime = 90ms
*.host1.app[17].stopTime = 97ms
*.host1.app[17].display-name = "type2_7"
*.host1.app[17].destPort = 1000
*.host1.app[18].typename = "UdpSinkApp"
*.host1.app[18].io.localPort = 1001
*.host2.numApps = 8
*.host2.app[0].typename = "UdpSinkApp"
*.host2.app[0].io.localPort = 1000
*.host2.app[1].typename = "UdpSourceApp"
*.host2.app[1].io.destAddress = "host7"
*.host2.app[1].source.packetNameFormat = "%M-%m-%c"
*.host2.app[1].source.displayStringTextFormat = "sent %p pk (%l)"
*.host2.app[1].source.packetLength = 24B
*.host2.app[1].source.productionInterval = 1ms
*.host2.app[1].display-name = "type1_3"
*.host2.app[1].io.destPort = 1001
*.host2.app[2].typename = "UdpSinkApp"
*.host2.app[2].io.localPort = 1001
*.host2.app[3].typename = "UdpSinkApp"
*.host2.app[3].io.localPort = 1002
*.host2.app[4].typename = "UdpSinkApp"
*.host2.app[4].io.localPort = 1003
*.host2.app[5].typename = "UdpSinkApp"
*.host2.app[5].io.localPort = 1004
*.host2.app[6].typename = "UdpSinkApp"
*.host2.app[6].io.localPort = 1005
*.host2.app[7].typename = "UdpSinkApp"
*.host2.app[7].io.localPort = 1006
*.host3.numApps = 4
*.host3.app[0].typename = "UdpSourceApp"
*.host3.app[0].io.destAddress = "host2"
*.host3.app[0].source.packetNameFormat = "%M-%m-%c"
*.host3.app[0].source.displayStringTextFormat = "sent %p pk (%l)"
*.host3.app[0].source.packetLength = 23B
*.host3.app[0].source.productionInterval = 1ms
*.host3.app[0].display-name = "type1_0"
*.host3.app[0].io.destPort = 1000
*.host3.app[1].typename = "UdpSourceApp"
*.host3.app[1].io.destAddress = "host7"
*.host3.app[1].source.packetNameFormat = "%M-%m-%c"
*.host3.app[1].source.displayStringTextFormat = "sent %p pk (%l)"
*.host3.app[1].source.packetLength = 22B
*.host3.app[1].source.productionInterval = 1ms
*.host3.app[1].display-name = "type1_1"
*.host3.app[1].io.destPort = 1000
*.host3.app[2].typename = "UdpSourceApp"
*.host3.app[2].io.destAddress = "host1"
*.host3.app[2].source.packetNameFormat = "%M-%m-%c"
*.host3.app[2].source.displayStringTextFormat = "sent %p pk (%l)"
*.host3.app[2].source.packetLength = 14B
*.host3.app[2].source.productionInterval = 1ms
*.host3.app[2].display-name = "type1_2"
*.host3.app[2].io.destPort = 1000
*.host3.app[3].typename = "UdpSourceApp"
*.host3.app[3].io.destAddress = "host6"
*.host3.app[3].source.packetNameFormat = "%M-%m-%c"
*.host3.app[3].source.displayStringTextFormat = "sent %p pk (%l)"
*.host3.app[3].source.packetLength = 18B
*.host3.app[3].source.productionInterval = 1ms
*.host3.app[3].display-name = "type1_4"
*.host3.app[3].io.destPort = 1000
*.host4.numApps = 1
*.host4.app[0].typename = "UdpSinkApp"
*.host4.app[0].io.localPort = 1000
*.host5.numApps = 5
*.host5.app[0].typename = "UdpBasicApp"
*.host5.app[0].destAddresses = "host6"
*.host5.app[0].source.packetNameFormat = "%M-%m-%c"
*.host5.app[0].source.displayStringTextFormat = "sent %p pk (%l)"
*.host5.app[0].messageLength = 16B
*.host5.app[0].sendInterval = 1ms
*.host5.app[0].startTime = 8ms
*.host5.app[0].stopTime = 29ms
*.host5.app[0].display-name = "type2_8"
*.host5.app[0].destPort = 1001
*.host5.app[1].typename = "UdpBasicApp"
*.host5.app[1].destAddresses = "host6"
*.host5.app[1].source.packetNameFormat = "%M-%m-%c"
*.host5.app[1].source.displayStringTextFormat = "sent %p pk (%l)"
*.host5.app[1].messageLength = 16B
*.host5.app[1].sendInterval = 1ms
*.host5.app[1].startTime = 35ms
*.host5.app[1].stopTime = 53ms
*.host5.app[1].display-name = "type2_8"
*.host5.app[1].destPort = 1001
*.host5.app[2].typename = "UdpBasicApp"
*.host5.app[2].destAddresses = "host6"
*.host5.app[2].source.packetNameFormat = "%M-%m-%c"
*.host5.app[2].source.displayStringTextFormat = "sent %p pk (%l)"
*.host5.app[2].messageLength = 16B
*.host5.app[2].sendInterval = 1ms
*.host5.app[2].startTime = 62ms
*.host5.app[2].stopTime = 64ms
*.host5.app[2].display-name = "type2_8"
*.host5.app[2].destPort = 1001
*.host5.app[3].typename = "UdpBasicApp"
*.host5.app[3].destAddresses = "host6"
*.host5.app[3].source.packetNameFormat = "%M-%m-%c"
*.host5.app[3].source.displayStringTextFormat = "sent %p pk (%l)"
*.host5.app[3].messageLength = 16B
*.host5.app[3].sendInterval = 1ms
*.host5.app[3].startTime = 65ms
*.host5.app[3].stopTime = 67ms
*.host5.app[3].display-name = "type2_8"
*.host5.app[3].destPort = 1001
*.host5.app[4].typename = "UdpBasicApp"
*.host5.app[4].destAddresses = "host6"
*.host5.app[4].source.packetNameFormat = "%M-%m-%c"
*.host5.app[4].source.displayStringTextFormat = "sent %p pk (%l)"
*.host5.app[4].messageLength = 16B
*.host5.app[4].sendInterval = 1ms
*.host5.app[4].startTime = 69ms
*.host5.app[4].stopTime = 94ms
*.host5.app[4].display-name = "type2_8"
*.host5.app[4].destPort = 1001
*.host6.numApps = 12
*.host6.app[0].typename = "UdpSinkApp"
*.host6.app[0].io.localPort = 1000
*.host6.app[1].typename = "UdpBasicApp"
*.host6.app[1].destAddresses = "host2"
*.host6.app[1].source.packetNameFormat = "%M-%m-%c"
*.host6.app[1].source.displayStringTextFormat = "sent %p pk (%l)"
*.host6.app[1].messageLength = 19B
*.host6.app[1].sendInterval = 1ms
*.host6.app[1].startTime = 1ms
*.host6.app[1].stopTime = 2ms
*.host6.app[1].display-name = "type2_2"
*.host6.app[1].destPort = 1001
*.host6.app[2].typename = "UdpBasicApp"
*.host6.app[2].destAddresses = "host2"
*.host6.app[2].source.packetNameFormat = "%M-%m-%c"
*.host6.app[2].source.displayStringTextFormat = "sent %p pk (%l)"
*.host6.app[2].messageLength = 19B
*.host6.app[2].sendInterval = 1ms
*.host6.app[2].startTime = 4ms
*.host6.app[2].stopTime = 20ms
*.host6.app[2].display-name = "type2_2"
*.host6.app[2].destPort = 1001
*.host6.app[3].typename = "UdpBasicApp"
*.host6.app[3].destAddresses = "host2"
*.host6.app[3].source.packetNameFormat = "%M-%m-%c"
*.host6.app[3].source.displayStringTextFormat = "sent %p pk (%l)"
*.host6.app[3].messageLength = 19B
*.host6.app[3].sendInterval = 1ms
*.host6.app[3].startTime = 23ms
*.host6.app[3].stopTime = 26ms
*.host6.app[3].display-name = "type2_2"
*.host6.app[3].destPort = 1001
*.host6.app[4].typename = "UdpBasicApp"
*.host6.app[4].destAddresses = "host2"
*.host6.app[4].source.packetNameFormat = "%M-%m-%c"
*.host6.app[4].source.displayStringTextFormat = "sent %p pk (%l)"
*.host6.app[4].messageLength = 19B
*.host6.app[4].sendInterval = 1ms
*.host6.app[4].startTime = 50ms
*.host6.app[4].stopTime = 51ms
*.host6.app[4].display-name = "type2_2"
*.host6.app[4].destPort = 1001
*.host6.app[5].typename = "UdpBasicApp"
*.host6.app[5].destAddresses = "host2"
*.host6.app[5].source.packetNameFormat = "%M-%m-%c"
*.host6.app[5].source.displayStringTextFormat = "sent %p pk (%l)"
*.host6.app[5].messageLength = 19B
*.host6.app[5].sendInterval = 1ms
*.host6.app[5].startTime = 64ms
*.host6.app[5].stopTime = 71ms
*.host6.app[5].display-name = "type2_2"
*.host6.app[5].destPort = 1001
*.host6.app[6].typename = "UdpBasicApp"
*.host6.app[6].destAddresses = "host2"
*.host6.app[6].source.packetNameFormat = "%M-%m-%c"
*.host6.app[6].source.displayStringTextFormat = "sent %p pk (%l)"
*.host6.app[6].messageLength = 19B
*.host6.app[6].sendInterval = 1ms
*.host6.app[6].startTime = 80ms
*.host6.app[6].stopTime = 100ms
*.host6.app[6].display-name = "type2_2"
*.host6.app[6].destPort = 1001
*.host6.app[7].typename = "UdpSinkApp"
*.host6.app[7].io.localPort = 1001
*.host6.app[8].typename = "UdpBasicApp"
*.host6.app[8].destAddresses = "host1"
*.host6.app[8].source.packetNameFormat = "%M-%m-%c"
*.host6.app[8].source.displayStringTextFormat = "sent %p pk (%l)"
*.host6.app[8].messageLength = 18B
*.host6.app[8].sendInterval = 1ms
*.host6.app[8].startTime = 11ms
*.host6.app[8].stopTime = 25ms
*.host6.app[8].display-name = "type2_10"
*.host6.app[8].destPort = 1001
*.host6.app[9].typename = "UdpBasicApp"
*.host6.app[9].destAddresses = "host1"
*.host6.app[9].source.packetNameFormat = "%M-%m-%c"
*.host6.app[9].source.displayStringTextFormat = "sent %p pk (%l)"
*.host6.app[9].messageLength = 18B
*.host6.app[9].sendInterval = 1ms
*.host6.app[9].startTime = 32ms
*.host6.app[9].stopTime = 50ms
*.host6.app[9].display-name = "type2_10"
*.host6.app[9].destPort = 1001
*.host6.app[10].typename = "UdpBasicApp"
*.host6.app[10].destAddresses = "host1"
*.host6.app[10].source.packetNameFormat = "%M-%m-%c"
*.host6.app[10].source.displayStringTextFormat = "sent %p pk (%l)"
*.host6.app[10].messageLength = 18B
*.host6.app[10].sendInterval = 1ms
*.host6.app[10].startTime = 63ms
*.host6.app[10].stopTime = 67ms
*.host6.app[10].display-name = "type2_10"
*.host6.app[10].destPort = 1001
*.host6.app[11].typename = "UdpBasicApp"
*.host6.app[11].destAddresses = "host1"
*.host6.app[11].source.packetNameFormat = "%M-%m-%c"
*.host6.app[11].source.displayStringTextFormat = "sent %p pk (%l)"
*.host6.app[11].messageLength = 18B
*.host6.app[11].sendInterval = 1ms
*.host6.app[11].startTime = 70ms
*.host6.app[11].stopTime = 98ms
*.host6.app[11].display-name = "type2_10"
*.host6.app[11].destPort = 1001
*.host7.numApps = 8
*.host7.app[0].typename = "UdpSinkApp"
*.host7.app[0].io.localPort = 1000
*.host7.app[1].typename = "UdpSinkApp"
*.host7.app[1].io.localPort = 1001
*.host7.app[2].typename = "UdpSinkApp"
*.host7.app[2].io.localPort = 1002
*.host7.app[3].typename = "UdpBasicApp"
*.host7.app[3].destAddresses = "host2"
*.host7.app[3].source.packetNameFormat = "%M-%m-%c"
*.host7.app[3].source.displayStringTextFormat = "sent %p pk (%l)"
*.host7.app[3].messageLength = 18B
*.host7.app[3].sendInterval = 1ms
*.host7.app[3].startTime = 0ms
*.host7.app[3].stopTime = 14ms
*.host7.app[3].display-name = "type2_4"
*.host7.app[3].destPort = 1003
*.host7.app[4].typename = "UdpBasicApp"
*.host7.app[4].destAddresses = "host2"
*.host7.app[4].source.packetNameFormat = "%M-%m-%c"
*.host7.app[4].source.displayStringTextFormat = "sent %p pk (%l)"
*.host7.app[4].messageLength = 18B
*.host7.app[4].sendInterval = 1ms
*.host7.app[4].startTime = 62ms
*.host7.app[4].stopTime = 66ms
*.host7.app[4].display-name = "type2_4"
*.host7.app[4].destPort = 1003
*.host7.app[5].typename = "UdpBasicApp"
*.host7.app[5].destAddresses = "host2"
*.host7.app[5].source.packetNameFormat = "%M-%m-%c"
*.host7.app[5].source.displayStringTextFormat = "sent %p pk (%l)"
*.host7.app[5].messageLength = 18B
*.host7.app[5].sendInterval = 1ms
*.host7.app[5].startTime = 82ms
*.host7.app[5].stopTime = 86ms
*.host7.app[5].display-name = "type2_4"
*.host7.app[5].destPort = 1003
*.host7.app[6].typename = "UdpBasicApp"
*.host7.app[6].destAddresses = "host2"
*.host7.app[6].source.packetNameFormat = "%M-%m-%c"
*.host7.app[6].source.displayStringTextFormat = "sent %p pk (%l)"
*.host7.app[6].messageLength = 18B
*.host7.app[6].sendInterval = 1ms
*.host7.app[6].startTime = 91ms
*.host7.app[6].stopTime = 95ms
*.host7.app[6].display-name = "type2_4"
*.host7.app[6].destPort = 1003
*.host7.app[7].typename = "UdpBasicApp"
*.host7.app[7].destAddresses = "host2"
*.host7.app[7].source.packetNameFormat = "%M-%m-%c"
*.host7.app[7].source.displayStringTextFormat = "sent %p pk (%l)"
*.host7.app[7].messageLength = 18B
*.host7.app[7].sendInterval = 1ms
*.host7.app[7].startTime = 98ms
*.host7.app[7].stopTime = 100ms
*.host7.app[7].display-name = "type2_4"
*.host7.app[7].destPort = 1003
*.host8.numApps = 3
*.host8.app[0].typename = "UdpSourceApp"
*.host8.app[0].io.destAddress = "host0"
*.host8.app[0].source.packetNameFormat = "%M-%m-%c"
*.host8.app[0].source.displayStringTextFormat = "sent %p pk (%l)"
*.host8.app[0].source.packetLength = 16B
*.host8.app[0].source.productionInterval = 1ms
*.host8.app[0].display-name = "type1_5"
*.host8.app[0].io.destPort = 1000
*.host8.app[1].typename = "UdpSinkApp"
*.host8.app[1].io.localPort = 1000
*.host8.app[2].typename = "UdpSinkApp"
*.host8.app[2].io.localPort = 1001
*.host9.numApps = 20
*.host9.app[0].typename = "UdpBasicApp"
*.host9.app[0].destAddresses = "host2"
*.host9.app[0].source.packetNameFormat = "%M-%m-%c"
*.host9.app[0].source.displayStringTextFormat = "sent %p pk (%l)"
*.host9.app[0].messageLength = 24B
*.host9.app[0].sendInterval = 1ms
*.host9.app[0].startTime = 11ms
*.host9.app[0].stopTime = 28ms
*.host9.app[0].display-name = "type2_3"
*.host9.app[0].destPort = 1002
*.host9.app[1].typename = "UdpBasicApp"
*.host9.app[1].destAddresses = "host2"
*.host9.app[1].source.packetNameFormat = "%M-%m-%c"
*.host9.app[1].source.displayStringTextFormat = "sent %p pk (%l)"
*.host9.app[1].messageLength = 24B
*.host9.app[1].sendInterval = 1ms