[General]
network = TSN_multipath
sim-time-limit = 100ms
*.macForwardingTableConfigurator.typename = ""
*.*.hasStreamRedundancy = true
*.*.bridging.streamRelay.typename = "StreamRelayLayer"
*.*.bridging.streamCoder.typename = "StreamCoderLayer"
*.streamRedundancyConfigurator.typename = "StreamRedundancyConfigurator"
*.host0.eth[0].bitrate = 1000Mbps
*.switch0.eth[0].bitrate = 1000Mbps
*.switch0.eth[1].bitrate = 1700Mbps
*.switch0.eth[2].bitrate = 1400Mbps
*.switch0.eth[3].bitrate = 1200Mbps
*.switch0.eth[4].bitrate = 1900Mbps
*.switch0.eth[5].bitrate = 1700Mbps
*.switch0.eth[6].bitrate = 1200Mbps
*.switch0.eth[7].bitrate = 2200Mbps
*.switch0.eth[8].bitrate = 1800Mbps
*.switch0.eth[9].bitrate = 1200Mbps
*.switch0.eth[10].bitrate = 2400Mbps
*.switch0.eth[11].bitrate = 1400Mbps
*.switch0.eth[12].bitrate = 2000Mbps
*.switch0.eth[13].bitrate = 1800Mbps
*.switch0.eth[14].bitrate = 1800Mbps
*.switch0.eth[15].bitrate = 1700Mbps
*.switch0.eth[16].bitrate = 2100Mbps
*.host1.eth[0].bitrate = 1000Mbps
*.switch1.eth[0].bitrate = 1000Mbps
*.switch1.eth[1].bitrate = 1200Mbps
*.switch1.eth[2].bitrate = 2000Mbps
*.switch1.eth[3].bitrate = 2300Mbps
*.switch1.eth[4].bitrate = 2100Mbps
*.switch1.eth[5].bitrate = 1900Mbps
*.switch1.eth[6].bitrate = 1600Mbps
*.switch1.eth[7].bitrate = 1400Mbps
*.switch1.eth[8].bitrate = 1200Mbps
*.switch1.eth[9].bitrate = 1900Mbps
*.switch1.eth[10].bitrate = 2100Mbps
*.switch1.eth[11].bitrate = 2000Mbps
*.switch1.eth[12].bitrate = 2200Mbps
*.switch1.eth[13].bitrate = 2300Mbps
*.switch1.eth[14].bitrate = 1900Mbps
*.switch1.eth[15].bitrate = 1700Mbps
*.switch1.eth[16].bitrate = 2300Mbps
*.switch1.eth[17].bitrate = 1700Mbps
*.switch1.eth[18].bitrate = 1200Mbps
*.switch1.eth[19].bitrate = 1500Mbps
*.switch1.eth[20].bitrate = 1900Mbps
*.switch1.eth[21].bitrate = 1600Mbps
*.switch1.eth[22].bitrate = 2200Mbps
*.switch1.eth[23].bitrate = 1800Mbps
*.switch1.eth[24].bitrate = 1900Mbps
*.switch1.eth[25].bitrate = 1400Mbps
*.host2.eth[0].bitrate = 1000Mbps
*.switch2.eth[0].bitrate = 1000Mbps
*.switch2.eth[1].bitrate = 2000Mbps
*.switch2.eth[2].bitrate = 1200Mbps
*.switch2.eth[3].bitrate = 2200Mbps
*.switch2.eth[4].bitrate = 2400Mbps
*.switch2.eth[5].bitrate = 2400Mbps
*.switch2.eth[6].bitrate = 1900Mbps
*.switch2.eth[7].bitrate = 2000Mbps
*.switch2.eth[8].bitrate = 1500Mbps
*.switch2.eth[9].bitrate = 1900Mbps
*.switch2.eth[10].bitrate = 1400Mbps
*.switch2.eth[11].bitrate = 1700Mbps
*.switch2.eth[12].bitrate = 1700Mbps
*.switch2.eth[13].bitrate = 2100Mbps
*.switch2.eth[14].bitrate = 1300Mbps
*.switch2.eth[15].bitrate = 2300Mbps
*.switch2.eth[16].bitrate = 2400Mbps
*.switch2.eth[17].bitrate = 2200Mbps
*.host3.eth[0].bitrate = 1000Mbps
*.switch3.eth[0].bitrate = 1000Mbps
*.switch3.eth[1].bitrate = 2300Mbps
*.switch3.eth[2].bitrate = 2100Mbps
*.switch3.eth[3].bitrate = 1700Mbps
*.switch3.eth[4].bitrate = 2100Mbps
*.switch3.eth[5].bitrate = 1700Mbps
*.switch3.eth[6].bitrate = 1500Mbps
*.switch3.eth[7].bitrate = 1700Mbps
*.switch3.eth[8].bitrate = 2300Mbps
*.switch3.eth[9].bitrate = 2100Mbps
*.switch3.eth[10].bitrate = 2200Mbps
*.switch3.eth[11].bitrate = 1600Mbps
*.switch3.eth[12].bitrate = 1500Mbps
*.switch3.eth[13].bitrate = 1500Mbps
*.host4.eth[0].bitrate = 1000Mbps
*.switch4.eth[0].bitrate = 1000Mbps
*.switch4.eth[1].bitrate = 1700Mbps
*.switch4.eth[2].bitrate = 2100Mbps
*.switch4.eth[3].bitrate = 2200Mbps
*.switch4.eth[4].bitrate = 1500Mbps
*.switch4.eth[5].bitrate = 1900Mbps
*.switch4.eth[6].bitrate = 1700Mbps
*.switch4.eth[7].bitrate = 1800Mbps
*.switch4.eth[8].bitrate = 1600Mbps
*.switch4.eth[9].bitrate = 1200Mbps
*.switch4.eth[10].bitrate = 1400Mbps
*.switch4.eth[11].bitrate = 2400Mbps
*.switch4.eth[12].bitrate = 2200Mbps
*.switch4.eth[13].bitrate = 1700Mbps
*.switch4.eth[14].bitrate = 1200Mbps
*.switch4.eth[15].bitrate = 1700Mbps
*.switch4.eth[16].bitrate = 1700Mbps
*.switch4.eth[17].bitrate = 2100Mbps
*.switch4.eth[18].bitrate = 1700Mbps
*.switch4.eth[19].bitrate = 1900Mbps
*.switch4.eth[20].bitrate = 1700Mbps
*.switch4.eth[21].bitrate = 1400Mbps
*.switch4.eth[22].bitrate = 1200Mbps
*.switch4.eth[23].bitrate = 1300Mbps
*.switch4.eth[24].bitrate = 1600Mbps
*.switch4.eth[25].bitrate = 2200Mbps
*.switch4.eth[26].bitrate = 1500Mbps
*.switch4.eth[27].bitrate = 1200Mbps
*.host5.eth[0].bitrate = 1000Mbps
*.switch5.eth[0].bitrate = 1000Mbps
*.switch5.eth[1].bitrate = 1900Mbps
*.switch5.eth[2].bitrate = 2200Mbps
*.switch5.eth[3].bitrate = 1800Mbps
*.switch5.eth[4].bitrate = 1800Mbps
*.switch5.eth[5].bitrate = 1900Mbps
*.switch5.eth[6].bitrate = 1700Mbps
*.switch5.eth[7].bitrate = 1300Mbps
*.switch5.eth[8].bitrate = 1600Mbps
*.switch5.eth[9].bitrate = 2400Mbps
*.switch5.eth[10].bitrate = 2400Mbps
*.switch5.eth[11].bitrate = 2100Mbps
*.switch5.eth[12].bitrate = 1600Mbps
*.switch5.eth[13].bitrate = 2100Mbps
*.switch5.eth[14].bitrate = 1500Mbps
*.switch5.eth[15].bitrate = 1300Mbps
*.switch5.eth[16].bitrate = 1800Mbps
*.switch5.eth[17].bitrate = 1800Mbps
*.switch5.eth[18].bitrate = 1600Mbps
*.switch5.eth[19].bitrate = 2100Mbps
*.switch5.eth[20].bitrate = 1800Mbps
*.switch5.eth[21].bitrate = 1500Mbps
*.switch5.eth[22].bitrate = 2300Mbps
*.switch5.eth[23].bitrate = 2300Mbps
*.host6.eth[0].bitrate = 1000Mbps
*.switch6.eth[0].bitrate = 1000Mbps
*.switch6.eth[1].bitrate = 1600Mbps
*.switch6.eth[2].bitrate = 2400Mbps
*.switch6.eth[3].bitrate = 2100Mbps
*.switch6.eth[4].bitrate = 1600Mbps
*.switch6.eth[5].bitrate = 1200Mbps
*.switch6.eth[6].bitrate = 1600Mbps
*.switch6.eth[7].bitrate = 1400Mbps
*.switch6.eth[8].bitrate = 2300Mbps
*.switch6.eth[9].bitrate = 1800Mbps
*.switch6.eth[10].bitrate = 1700Mbps
*.switch6.eth[11].bitrate = 1400Mbps
*.switch6.eth[12].bitrate = 1600Mbps
*.switch6.eth[13].bitrate = 2100Mbps
*.switch6.eth[14].bitrate = 1900Mbps
*.switch6.eth[15].bitrate = 2200Mbps
*.switch6.eth[16].bitrate = 1700Mbps
*.switch6.eth[17].bitrate = 2200Mbps
*.switch6.eth[18].bitrate = 1900Mbps
*.switch6.eth[19].bitrate = 2000Mbps
*.switch6.eth[20].bitrate = 2100Mbps
*.switch6.eth[21].bitrate = 2400Mbps
*.switch6.eth[22].bitrate = 1600Mbps
*.switch6.eth[23].bitrate = 2000Mbps
*.switch6.eth[24].bitrate = 1300Mbps
*.switch6.eth[25].bitrate = 2400Mbps
*.switch6.eth[26].bitrate = 1400Mbps
*.switch6.eth[27].bitrate = 1600Mbps
*.host7.eth[0].bitrate = 1000Mbps
*.switch7.eth[0].bitrate = 1000Mbps
*.switch7.eth[1].bitrate = 1700Mbps
*.switch7.eth[2].bitrate = 1200Mbps
*.switch7.eth[3].bitrate = 1300Mbps
*.switch7.eth[4].bitrate = 1700Mbps
*.switch7.eth[5].bitrate = 1400Mbps
*.switch7.eth[6].bitrate = 1300Mbps
*.switch7.eth[7].bitrate = 2200Mbps
*.switch7.eth[8].bitrate = 1600Mbps
*.switch7.eth[9].bitrate = 1800Mbps
*.switch7.eth[10].bitrate = 1900Mbps
*.switch7.eth[11].bitrate = 2400Mbps
*.switch7.eth[12].bitrate = 2300Mbps
*.switch7.eth[13].bitrate = 2000Mbps
*.switch7.eth[14].bitrate = 1900Mbps
*.switch7.eth[15].bitrate = 1400Mbps
*.switch7.eth[16].bitrate = 1200Mbps
*.host8.eth[0].bitrate = 1000Mbps
*.switch8.eth[0].bitrate = 1000Mbps
*.switch8.eth[1].bitrate = 1400Mbps
*.switch8.eth[2].bitrate = 1400Mbps
*.switch8.eth[3].bitrate = 1400Mbps
*.switch8.eth[4].bitrate = 1400Mbps
*.switch8.eth[5].bitrate = 1400Mbps
*.switch8.eth[6].bitrate = 1600Mbps
*.switch8.eth[7].bitrate = 1600Mbps
*.switch8.eth[8].bitrate = 1800Mbps
*.switch8.eth[9].bitrate = 1800Mbps
*.switch8.eth[10].bitrate = 2300Mbps
*.switch8.eth[11].bitrate = 2300Mbps
*.switch8.eth[12].bitrate = 2200Mbps
*.switch8.eth[13].bitrate = 2300Mbps
*.switch8.eth[14].bitrate = 1600Mbps
*.switch8.eth[15].bitrate = 2100Mbps
*.switch8.eth[16].bitrate = 1700Mbps
*.switch8.eth[17].bitrate = 1600Mbps
*.switch8.eth[18].bitrate = 2300Mbps
*.switch8.eth[19].bitrate = 2100Mbps
*.switch8.eth[20].bitrate = 1900Mbps
*.host9.eth[0].bitrate = 1000Mbps
*.switch9.eth[0].bitrate = 1000Mbps
*.switch9.eth[1].bitrate = 1200Mbps
*.switch9.eth[2].bitrate = 1200Mbps
*.switch9.eth[3].bitrate = 2400Mbps
*.switch9.eth[4].bitrate = 2400Mbps
*.switch9.eth[5].bitrate = 1600Mbps
*.switch9.eth[6].bitrate = 1600Mbps
*.switch9.eth[7].bitrate = 2400Mbps
*.switch9.eth[8].bitrate = 1700Mbps
*.switch9.eth[9].bitrate = 2100Mbps
*.switch9.eth[10].bitrate = 1200Mbps
*.switch9.eth[11].bitrate = 2100Mbps
*.switch9.eth[12].bitrate = 2000Mbps
*.switch9.eth[13].bitrate = 2100Mbps
*.switch9.eth[14].bitrate = 1800Mbps
*.switch9.eth[15].bitrate = 1200Mbps
*.switch9.eth[16].bitrate = 1200Mbps
*.switch9.eth[17].bitrate = 2000Mbps
*.switch9.eth[18].bitrate = 1500Mbps
*.switch9.eth[19].bitrate = 2300Mbps
*.switch9.eth[20].bitrate = 2300Mbps
*.switch9.eth[21].bitrate = 2400Mbps
*.switch9.eth[22].bitrate = 2200Mbps
*.switch9.eth[23].bitrate = 2100Mbps
*.switch9.eth[24].bitrate = 2300Mbps
*.switch9.eth[25].bitrate = 1600Mbps
*.switch9.eth[26].bitrate = 1500Mbps
*.host10.eth[0].bitrate = 1000Mbps
*.switch10.eth[0].bitrate = 1000Mbps
*.switch10.eth[1].bitrate = 1900Mbps
*.switch10.eth[2].bitrate = 2100Mbps
*.switch10.eth[3].bitrate = 2200Mbps
*.switch10.eth[4].bitrate = 2100Mbps
*.switch10.eth[5].bitrate = 1400Mbps
*.switch10.eth[6].bitrate = 1800Mbps
*.switch10.eth[7].bitrate = 1800Mbps
*.switch10.eth[8].bitrate = 1400Mbps
*.switch10.eth[9].bitrate = 1700Mbps
*.switch10.eth[10].bitrate = 2200Mbps
*.switch10.eth[11].bitrate = 1300Mbps
*.switch10.eth[12].bitrate = 1800Mbps
*.switch10.eth[13].bitrate = 1300Mbps
*.switch10.eth[14].bitrate = 1900Mbps
*.switch10.eth[15].bitrate = 2200Mbps
*.switch10.eth[16].bitrate = 1300Mbps
*.switch10.eth[17].bitrate = 2300Mbps
*.switch10.eth[18].bitrate = 1400Mbps
*.switch10.eth[19].bitrate = 1700Mbps
*.switch10.eth[20].bitrate = 2200Mbps
*.switch10.eth[21].bitrate = 2400Mbps
*.switch10.eth[22].bitrate = 2400Mbps
*.switch10.eth[23].bitrate = 2300Mbps
*.switch10.eth[24].bitrate = 2000Mbps
*.switch10.eth[25].bitrate = 2000Mbps
*.switch10.eth[26].bitrate = 1200Mbps
*.switch10.eth[27].bitrate = 1600Mbps
*.switch10.eth[28].bitrate = 1700Mbps
*.switch10.eth[29].bitrate = 1700Mbps
*.switch10.eth[30].bitrate = 2400Mbps
*.host11.eth[0].bitrate = 1000Mbps
*.switch11.eth[0].bitrate = 1000Mbps
*.switch11.eth[1].bitrate = 1700Mbps
*.switch11.eth[2].bitrate = 2400Mbps
*.switch11.eth[3].bitrate = 2300Mbps
*.switch11.eth[4].bitrate = 1200Mbps
*.switch11.eth[5].bitrate = 1300Mbps
*.switch11.eth[6].bitrate = 2000Mbps
*.switch11.eth[7].bitrate = 2200Mbps
*.switch11.eth[8].bitrate = 2100Mbps
*.switch11.eth[9].bitrate = 2400Mbps
*.switch11.eth[10].bitrate = 1700Mbps
*.switch11.eth[11].bitrate = 2000Mbps
*.switch11.eth[12].bitrate = 1800Mbps
*.switch11.eth[13].bitrate = 2200Mbps
*.switch11.eth[14].bitrate = 1200Mbps
*.switch11.eth[15].bitrate = 1300Mbps
*.switch11.eth[16].bitrate = 2400Mbps
*.switch11.eth[17].bitrate = 1200Mbps
*.switch11.eth[18].bitrate = 2200Mbps
*.switch11.eth[19].bitrate = 1200Mbps
*.switch11.eth[20].bitrate = 1200Mbps
*.switch11.eth[21].bitrate = 1400Mbps
*.host12.eth[0].bitrate = 1000Mbps
*.switch12.eth[0].bitrate = 1000Mbps
*.switch12.eth[1].bitrate = 2100Mbps
*.switch12.eth[2].bitrate = 2400Mbps
*.switch12.eth[3].bitrate = 1900Mbps
*.switch12.eth[4].bitrate = 2300Mbps
*.switch12.eth[5].bitrate = 1200Mbps
*.switch12.eth[6].bitrate = 2300Mbps
*.switch12.eth[7].bitrate = 1800Mbps
*.switch12.eth[8].bitrate = 1800Mbps
*.switch12.eth[9].bitrate = 1600Mbps
*.switch12.eth[10].bitrate = 1600Mbps
*.switch12.eth[11].bitrate = 1500Mbps
*.switch12.eth[12].bitrate = 2300Mbps
*.switch12.eth[13].bitrate = 1600Mbps
*.switch12.eth[14].bitrate = 2100Mbps
*.switch12.eth[15].bitrate = 2000Mbps
*.switch12.eth[16].bitrate = 2200Mbps
*.switch12.eth[17].bitrate = 1600Mbps
*.switch12.eth[18].bitrate = 1700Mbps
*.switch12.eth[19].bitrate = 2300Mbps
*.switch12.eth[20].bitrate = 2200Mbps
*.switch12.eth[21].bitrate = 2200Mbps
*.switch12.eth[22].bitrate = 1800Mbps
*.switch12.eth[23].bitrate = 2200Mbps
*.switch12.eth[24].bitrate = 1300Mbps
*.switch12.eth[25].bitrate = 2100Mbps
*.host13.eth[0].bitrate = 1000Mbps
*.switch13.eth[0].bitrate = 1000Mbps
*.switch13.eth[1].bitrate = 2000Mbps
*.switch13.eth[2].bitrate = 1900Mbps
*.switch13.eth[3].bitrate = 1700Mbps
*.switch13.eth[4].bitrate = 1200Mbps
*.switch13.eth[5].bitrate = 2100Mbps
*.switch13.eth[6].bitrate = 2200Mbps
*.switch13.eth[7].bitrate = 1300Mbps
*.switch13.eth[8].bitrate = 2200Mbps
*.switch13.eth[9].bitrate = 2200Mbps
*.switch13.eth[10].bitrate = 1600Mbps
*.switch13.eth[11].bitrate = 1800Mbps
*.switch13.eth[12].bitrate = 1800Mbps
*.switch13.eth[13].bitrate = 1300Mbps
*.switch13.eth[14].bitrate = 1500Mbps
*.switch13.eth[15].bitrate = 2200Mbps
*.switch13.eth[16].bitrate = 2300Mbps
*.switch13.eth[17].bitrate = 2400Mbps
*.switch13.eth[18].bitrate = 2000Mbps
*.switch13.eth[19].bitrate = 2300Mbps
*.switch13.eth[20].bitrate = 1200Mbps
*.switch13.eth[21].bitrate = 1200Mbps
*.switch13.eth[22].bitrate = 1800Mbps
*.switch13.eth[23].bitrate = 2100Mbps
*.switch13.eth[24].bitrate = 2300Mbps
*.switch13.eth[25].bitrate = 2300Mbps
*.switch13.eth[26].bitrate = 2400Mbps
*.switch13.eth[27].bitrate = 1200Mbps
*.switch13.eth[28].bitrate = 1300Mbps
*.switch13.eth[29].bitrate = 1200Mbps
*.switch13.eth[30].bitrate = 1400Mbps
*.switch13.eth[31].bitrate = 1300Mbps
*.switch13.eth[32].bitrate = 1300Mbps
*.host14.eth[0].bitrate = 1000Mbps
*.switch14.eth[0].bitrate = 1000Mbps
*.switch14.eth[1].bitrate = 2200Mbps
*.switch14.eth[2].bitrate = 1500Mbps
*.switch14.eth[3].bitrate = 1600Mbps
*.switch14.eth[4].bitrate = 1700Mbps
*.switch14.eth[5].bitrate = 2000Mbps
*.switch14.eth[6].bitrate = 1400Mbps
*.switch14.eth[7].bitrate = 1200Mbps
*.switch14.eth[8].bitrate = 1700Mbps
*.switch14.eth[9].bitrate = 2100Mbps
*.switch14.eth[10].bitrate = 2200Mbps
*.switch14.eth[11].bitrate = 2100Mbps
*.switch14.eth[12].bitrate = 1200Mbps
*.switch14.eth[13].bitrate = 2400Mbps
*.host15.eth[0].bitrate = 1000Mbps
*.switch15.eth[0].bitrate = 1000Mbps
*.switch15.eth[1].bitrate = 1900Mbps
*.switch15.eth[2].bitrate = 2300Mbps
*.switch15.eth[3].bitrate = 2000Mbps
*.switch15.eth[4].bitrate = 1700Mbps
*.switch15.eth[5].bitrate = 2100Mbps
*.switch15.eth[6].bitrate = 2200Mbps
*.switch15.eth[7].bitrate = 2200Mbps
*.switch15.eth[8].bitrate = 1500Mbps
*.switch15.eth[9].bitrate = 1700Mbps
*.switch15.eth[10].bitrate = 2300Mbps
*.switch15.eth[11].bitrate = 2300Mbps
*.switch15.eth[12].bitrate = 1700Mbps
*.switch15.eth[13].bitrate = 1900Mbps
*.switch15.eth[14].bitrate = 2300Mbps
*.switch15.eth[15].bitrate = 1500Mbps
*.switch15.eth[16].bitrate = 2300Mbps
*.switch15.eth[17].bitrate = 1400Mbps
*.switch15.eth[18].bitrate = 1900Mbps
*.switch15.eth[19].bitrate = 2100Mbps
*.switch15.eth[20].bitrate = 2300Mbps
*.switch15.eth[21].bitrate = 1200Mbps
*.switch15.eth[22].bitrate = 1300Mbps
*.switch15.eth[23].bitrate = 1200Mbps
*.switch15.eth[24].bitrate = 2100Mbps
*.switch15.eth[25].bitrate = 2400Mbps
*.switch15.eth[26].bitrate = 1600Mbps
*.switch15.eth[27].bitrate = 1300Mbps
*.switch15.eth[28].bitrate = 1200Mbps
*.switch15.eth[29].bitrate = 2300Mbps
*.switch15.eth[30].bitrate = 2200Mbps
*.host16.eth[0].bitrate = 1000Mbps
*.switch16.eth[0].bitrate = 1000Mbps
*.switch16.eth[1].bitrate = 1900Mbps
*.switch16.eth[2].bitrate = 1700Mbps
*.switch16.eth[3].bitrate = 1500Mbps
*.switch16.eth[4].bitrate = 1900Mbps
*.switch16.eth[5].bitrate = 2200Mbps
*.switch16.eth[6].bitrate = 2300Mbps
*.switch16.eth[7].bitrate = 2400Mbps
*.switch16.eth[8].bitrate = 1600Mbps
*.switch16.eth[9].bitrate = 1400Mbps
*.switch16.eth[10].bitrate = 1200Mbps
*.switch16.eth[11].bitrate = 2400Mbps
*.switch16.eth[12].bitrate = 2200Mbps
*.host17.eth[0].bitrate = 1000Mbps
*.switch17.eth[0].bitrate = 1000Mbps
*.switch17.eth[1].bitrate = 1700Mbps
*.switch17.eth[2].bitrate = 2100Mbps
*.switch17.eth[3].bitrate = 2000Mbps
*.switch17.eth[4].bitrate = 2300Mbps
*.switch17.eth[5].bitrate = 2400Mbps
*.switch17.eth[6].bitrate = 1300Mbps
*.switch17.eth[7].bitrate = 2400Mbps
*.switch17.eth[8].bitrate = 1600Mbps
*.switch17.eth[9].bitrate = 2400Mbps
*.switch17.eth[10].bitrate = 2100Mbps
*.switch17.eth[11].bitrate = 1400Mbps
*.switch17.eth[12].bitrate = 2400Mbps
*.switch17.eth[13].bitrate = 1500Mbps
*.switch17.eth[14].bitrate = 1200Mbps
*.switch17.eth[15].bitrate = 1600Mbps
*.switch17.eth[16].bitrate = 1400Mbps
*.switch17.eth[17].bitrate = 1900Mbps
*.switch17.eth[18].bitrate = 1600Mbps
*.switch17.eth[19].bitrate = 1700Mbps
*.switch17.eth[20].bitrate = 1400Mbps
*.switch17.eth[21].bitrate = 2100Mbps
*.switch17.eth[22].bitrate = 1300Mbps
*.switch17.eth[23].bitrate = 2400Mbps
*.switch17.eth[24].bitrate = 2300Mbps
*.switch17.eth[25].bitrate = 2200Mbps
*.switch17.eth[26].bitrate = 1600Mbps
*.switch17.eth[27].bitrate = 2200Mbps
*.host18.eth[0].bitrate = 1000Mbps
*.switch18.eth[0].bitrate = 1000Mbps
*.switch18.eth[1].bitrate = 2300Mbps
*.switch18.eth[2].bitrate = 1500Mbps
*.switch18.eth[3].bitrate = 1700Mbps
*.switch18.eth[4].bitrate = 1300Mbps
*.switch18.eth[5].bitrate = 2100Mbps
*.switch18.eth[6].bitrate = 1600Mbps
*.switch18.eth[7].bitrate = 2300Mbps
*.switch18.eth[8].bitrate = 2300Mbps
*.switch18.eth[9].bitrate = 2400Mbps
*.switch18.eth[10].bitrate = 2400Mbps
*.switch18.eth[11].bitrate = 2200Mbps
*.switch18.eth[12].bitrate = 1200Mbps
*.switch18.eth[13].bitrate = 1300Mbps
*.switch18.eth[14].bitrate = 1600Mbps
*.switch18.eth[15].bitrate = 2200Mbps
*.switch18.eth[16].bitrate = 1200Mbps
*.switch18.eth[17].bitrate = 1500Mbps
*.switch18.eth[18].bitrate = 1700Mbps
*.switch18.eth[19].bitrate = 1300Mbps
*.switch18.eth[20].bitrate = 2200Mbps
*.host19.eth[0].bitrate = 1000Mbps
*.switch19.eth[0].bitrate = 1000Mbps
*.switch19.eth[1].bitrate = 1700Mbps
*.switch19.eth[2].bitrate = 1700Mbps
*.switch19.eth[3].bitrate = 1900Mbps
*.switch19.eth[4].bitrate = 1800Mbps
*.switch19.eth[5].bitrate = 2400Mbps
*.switch19.eth[6].bitrate = 1600Mbps
*.switch19.eth[7].bitrate = 2400Mbps
*.switch19.eth[8].bitrate = 2300Mbps
*.switch19.eth[9].bitrate = 1200Mbps
*.switch19.eth[10].bitrate = 2200Mbps
*.switch19.eth[11].bitrate = 1300Mbps
*.switch19.eth[12].bitrate = 1200Mbps
*.switch19.eth[13].bitrate = 2200Mbps
*.switch19.eth[14].bitrate = 2200Mbps
*.switch19.eth[15].bitrate = 2400Mbps
*.switch19.eth[16].bitrate = 2200Mbps
*.host0.numApps = 6
*.host0.app[0].typename = "UdpSinkApp"
*.host0.app[0].io.localPort = 1000
*.host0.app[1].typename = "UdpBasicApp"
*.host0.app[1].destAddresses = "host9"
*.host0.app[1].source.packetNameFormat = "%M-%m-%c"
*.host0.app[1].source.displayStringTextFormat = "sent %p pk (%l)"
*.host0.app[1].messageLength = 19B
*.host0.app[1].sendInterval = 1ms
*.host0.app[1].startTime = 3ms
*.host0.app[1].stopTime = 10ms
*.host0.app[1].display-name = "type2_11"
*.host0.app[1].destPort = 1002
*.host0.app[2].typename = "UdpBasicApp"
*.host0.app[2].destAddresses = "host9"
*.host0.app[2].source.packetNameFormat = "%M-%m-%c"
*.host0.app[2].source.displayStringTextFormat = "sent %p pk (%l)"
*.host0.app[2].messageLength = 19B
*.host0.app[2].sendInterval = 1ms
*.host0.app[2].startTime = 17ms
*.host0.app[2].stopTime = 31ms
*.host0.app[2].display-name = "type2_11"
*.host0.app[2].destPort = 1002
*.host0.app[3].typename = "UdpBasicApp"
*.host0.app[3].destAddresses = "host9"
*.host0.app[3].source.packetNameFormat = "%M-%m-%c"
*.host0.app[3].source.displayStringTextFormat = "sent %p pk (%l)"
*.host0.app[3].messageLength = 19B
*.host0.app[3].sendInterval = 1ms
*.host0.app[3].startTime = 43ms
*.host0.app[3].stopTime = 56ms
*.host0.app[3].display-name = "type2_11"
*.host0.app[3].destPort = 1002
*.host0.app[4].typename = "UdpBasicApp"
*.host0.app[4].destAddresses = "host9"
*.host0.app[4].source.packetNameFormat = "%M-%m-%c"
*.host0.app[4].source.displayStringTextFormat = "sent %p pk (%l)"
*.host0.app[4].messageLength = 19B
*.host0.app[4].sendInterval = 1ms
*.host0.app[4].startTime = 66ms
*.host0.app[4].stopTime = 74ms
*.host0.app[4].display-name = "type2_11"
*.host0.app[4].destPort = 1002
*.host0.app[5].typename = "UdpBasicApp"
*.host0.app[5].destAddresses = "host9"
*.host0.app[5].source.packetNameFormat = "%M-%m-%c"
*.host0.app[5].source.displayStringTextFormat = "sent %p pk (%l)"
*.host0.app[5].messageLength = 19B
*.host0.app[5].sendInterval = 1ms
*.host0.app[5].startTime = 95ms
*.host0.app[5].stopTime = 100ms
*.host0.app[5].display-name = "type2_11"
*.host0.app[5].destPort = 1002
*.host1.numApps = 0
*.host2.numApps = 1
*.host2.app[0].typename = "UdpSinkApp"
*.host2.app[0].io.localPort = 1000
*.host3.numApps = 1
*.host3.app[0].typename = "UdpSinkApp"
*.host3.app[0].io.localPort = 1000
*.host4.numApps = 13
*.host4.app[0].typename = "UdpSourceApp"
*.host4.app[0].io.destAddress = "host9"
*.host4.app[0].source.packetNameFormat = "%M-%m-%c"
*.host4.app[0].source.displayStringTextFormat = "sent %p pk (%l)"
*.host4.app[0].source.packetLength = 14B
*.host4.app[0].source.productionInterval = 1ms
*.host4.app[0].display-name = "type1_3"
*.host4.app[0].io.destPort = 1000
*.host4.app[1].typename = "UdpSourceApp"
*.host4.app[1].io.destAddress = "host13"
*.host4.app[1].source.packetNameFormat = "%M-%m-%c"
*.host4.app[1].source.displayStringTextFormat = "sent %p pk (%l)"
*.host4.app[1].source.packetLength = 20B
*.host4.app[1].source.productionInterval = 1ms
*.host4.app[1].display-name = "type1_4"
*.host4.app[1].io.destPort = 1000
*.host4.app[2].typename = "UdpBasicApp"
*.host4.app[2].destAddresses = "host6"
*.host4.app[2].source.packetNameFormat = "%M-%m-%c"
*.host4.app[2].source.displayStringTextFormat = "sent %p pk (%l)"
*.host4.app[2].messageLength = 17B
*.host4.app[2].sendInterval = 1ms
*.host4.app[2].startTime = 4ms
*.host4.app[2].stopTime = 23ms
*.host4.app[2].display-name = "type2_6"
*.host4.app[2].destPort = 1001
*.host4.app[3].typename = "UdpBasicApp"
*.host4.app[3].destAddresses = "host6"
*.host4.app[3].source.packetNameFormat = "%M-%m-%c"
*.host4.app[3].source.displayStringTextFormat = "sent %p pk (%l)"
*.host4.app[3].messageLength = 17B
*.host4.app[3].sendInterval = 1ms
*.host4.app[3].startTime = 25ms
*.host4.app[3].stopTime = 26ms
*.host4.app[3].display-name = "type2_6"
*.host4.app[3].destPort = 1001
*.host4.app[4].typename = "UdpBasicApp"
*.host4.app[4].destAddresses = "host6"
*.host4.app[4].source.packetNameFormat = "%M-%m-%c"
*.host4.app[4].source.displayStringTextFormat = "sent %p pk (%l)"
*.host4.app[4].messageLength = 17B
*.host4.app[4].sendInterval = 1ms
*.host4.app[4].startTime = 27ms
*.host4.app[4].stopTime = 46ms
*.host4.app[4].display-name = "type2_6"
*.host4.app[4].destPort = 1001
*.host4.app[5].typename = "UdpBasicApp"
*.host4.app[5].destAddresses = "host6"
*.host4.app[5].source.packetNameFormat = "%M-%m-%c"
*.host4.app[5].source.displayStringTextFormat = "sent %p pk (%l)"
*.host4.app[5].messageLength = 17B
*.host4.app[5].sendInterval = 1ms
*.host4.app[5].startTime = 49ms
*.host4.app[5].stopTime = 53ms
*.host4.app[5].display-name = "type2_6"
*.host4.app[5].destPort = 1001
*.host4.app[6].typename = "UdpBasicApp"
*.host4.app[6].destAddresses = "host6"
*.host4.app[6].source.packetNameFormat = "%M-%m-%c"
*.host4.app[6].source.displayStringTextFormat = "sent %p pk (%l)"
*.host4.app[6].messageLength = 17B
*.host4.app[6].sendInterval = 1ms
*.host4.app[6].startTime = 73ms
*.host4.app[6].stopTime = 82ms
*.host4.app[6].display-name = "type2_6"
*.host4.app[6].destPort = 1001
*.host4.app[7].typename = "UdpBasicApp"
*.host4.app[7].destAddresses = "host6"
*.host4.app[7].source.packetNameFormat = "%M-%m-%c"
*.host4.app[7].source.displayStringTextFormat = "sent %p pk (%l)"
*.host4.app[7].messageLength = 17B
*.host4.app[7].sendInterval = 1ms
*.host4.app[7].startTime = 88ms
*.host4.app[7].stopTime = 100ms
*.host4.app[7].display-name = "type2_6"
*.host4.app[7].destPort = 1001
*.host4.app[8].typename = "UdpBasicApp"
*.host4.app[8].destAddresses = "host13"
*.host4.app[8].source.packetNameFormat = "%M-%m-%c"
*.host4.app[8].source.displayStringTextFormat = "sent %p pk (%l)"
*.host4.app[8].messageLength = 19B
*.host4.app[8].sendInterval = 1ms
*.host4.app[8].startTime = 27ms
*.host4.app[8].stopTime = 29ms
*.host4.app[8].display-name = "type2_9"
*.host4.app[8].destPort = 1001
*.host4.app[9].typename = "UdpBasicApp"
*.host4.app[9].destAddresses = "host13"
*.host4.app[9].source.packetNameFormat = "%M-%m-%c"
*.host4.app[9].source.displayStringTextFormat = "sent %p pk (%l)"
*.host4.app[9].messageLength = 19B
*.host4.app[9].sendInterval = 1ms
*.host4.app[9].startTime = 33ms
*.host4.app[9].stopTime = 50ms
*.host4.app[9].display-name = "type2_9"
*.host4.app[9].destPort = 1001
*.host4.app[10].typename = "UdpBasicApp"
*.host4.app[10].destAddresses = "host13"
*.host4.app[10].source.packetNameFormat = "%M-%m-%c"
*.host4.app[10].source.displayStringTextFormat = "sent %p pk (%l)"
*.host4.app[10].messageLength = 19B
*.host4.app[10].sendInterval = 1ms
*.host4.app[10].startTime = 53ms
*.host4.app[10].stopTime = 65ms
*.host4.app[10].display-name = "type2_9"
*.host4.app[10].destPort = 1001
*.host4.app[11].typename = "UdpBasicApp"
*.host4.app[11].destAddresses = "host13"
*.host4.app[11].source.packetNameFormat = "%M-%m-%c"
*.host4.app[11].source.displayStringTextFormat = "sent %p pk (%l)"
*.host4.app[11].messageLength = 19B
*.host4.app[11].sendInterval = 1ms
*.host4.app[11].startTime = 67ms
*.host4.app[11].stopTime = 96ms
*.host4.app[11].display-name = "type2_9"
*.host4.app[11].destPort = 1001
*.host4.app[12].typename = "UdpBasicApp"
*.host4.app[12].destAddresses = "host13"
*.host4.app[12].source.packetNameFormat = "%M-%m-%c"
*.host4.app[12].source.displayStringTextFormat = "sent %p pk (%l)"
*.host4.app[12].messageLength = 19B
*.host4.app[12].sendInterval = 1ms
*.host4.app[12].startTime = 98ms
*.host4.app[12].stopTime = 100ms
*.host4.app[12].display-name = "type2_9"
*.host4.app[12].destPort = 1001
*.host5.numApps = 6
*.host5.app[0].typename = "UdpBasicApp"
*.host5.app[0].destAddresses = "host19"
*.host5.app[0].source.packetNameFormat = "%M-%m-%c"
*.host5.app[0].source.displayStringTextFormat = "sent %p pk (%l)"
*.host5.app[0].messageLength = 15B
*.host5.app[0].sendInterval = 1ms
*.host5.app[0].startTime = 23ms
*.host5.app[0].stopTime = 24ms
*.host5.app[0].display-name = "type2_3"
*.host5.app[0].destPort = 1000
*.host5.app[1].typename = "UdpBasicApp"
*.host5.app[1].destAddresses = "host19"
*.host5.app[1].source.packetNameFormat = "%M-%m-%c"
*.host5.app[1].source.displayStringTextFormat = "sent %p pk (%l)"
*.host5.app[1].messageLength = 15B
*.host5.app[1].sendInterval = 1ms
*.host5.app[1].startTime = 41ms
*.host5.app[1].stopTime = 47ms
*.host5.app[1].display-name = "type2_3"
*.host5.app[1].destPort = 1000
*.host5.app[2].typename = "UdpBasicApp"
*.host5.app[2].destAddresses = "host19"
*.host5.app[2].source.packetNameFormat = "%M-%m-%c"
*.host5.app[2].source.displayStringTextFormat = "sent %p pk (%l)"
*.host5.app[2].messageLength = 15B
*.host5.app[2].sendInterval = 1ms
*.host5.app[2].startTime = 52ms
*.host5.app[2].stopTime = 69ms
*.host5.app[2].display-name = "type2_3"
*.host5.app[2].destPort = 1000
*.host5.app[3].typename = "UdpBasicApp"
*.host5.app[3].destAddresses = "host19"
*.host5.app[3].source.packetNameFormat = "%M-%m-%c"
*.host5.app[3].source.displayStringTextFormat = "sent %p pk (%l)"
*.host5.app[3].messageLength = 15B
*.host5.app[3].sendInterval = 1ms
*.host5.app[3].startTime = 70ms
*.host5.app[3].stopTime = 90ms
*.host5.app[3].display-name = "type2_3"
*.host5.app[3].destPort = 1000
*.host5.app[4].typename = "UdpBasicApp"
*.host5.app[4].destAddresses = "host19"
*.host5.app[4].source.packetNameFormat = "%M-%m-%c"
*.host5.app[4].source.displayStringTextFormat = "sent %p pk (%l)"
*.host5.app[4].messageLength = 15B
*.host5.app[4].sendInterval = 1ms
*.host5.app[4].startTime = 94ms
*.host5.app[4].stopTime = 95ms
*.host5.app[4].display-name = "type2_3"
*.host5.app[4].destPort = 1000
*.host5.app[5].typename = "UdpSinkApp"
*.host5.app[5].io.localPort = 1000
*.host6.numApps = 2
*.host6.app[0].typename = "UdpSinkApp"
*.host6.app[0].io.localPort = 1000
*.host6.app[1].typename = "UdpSinkApp"
*.host6.app[1].io.localPort = 1001
*.host7.numApps = 0
*.host8.numApps = 5
*.host8.app[0].typename = "UdpBasicApp"
*.host8.app[0].destAddresses = "host5"
*.host8.app[0].source.packetNameFormat = "%M-%m-%c"
*.host8.app[0].source.displayStringTextFormat = "sent %p pk (%l)"
*.host8.app[0].messageLength = 20B
*.host8.app[0].sendInterval = 1ms
*.host8.app[0].startTime = 10ms
*.host8.app[0].stopTime = 24ms
*.host8.app[0].display-name = "type2_5"
*.host8.app[0].destPort = 1000
*.host8.app[1].typename = "UdpBasicApp"
*.host8.app[1].destAddresses = "host5"
*.host8.app[1].source.packetNameFormat = "%M-%m-%c"
*.host8.app[1].source.displayStringTextFormat = "sent %p pk (%l)"
*.host8.app[1].messageLength = 20B
*.host8.app[1].sendInterval = 1ms
*.host8.app[1].startTime = 35ms
*.host8.app[1].stopTime = 50ms
*.host8.app[1].display-name = "type2_5"
*.host8.app[1].destPort = 1000
*.host8.app[2].typename = "UdpBasicApp"
*.host8.app[2].destAddresses = "host5"
*.host8.app[2].source.packetNameFormat = "%M-%m-%c"
*.host8.app[2].source.displayStringTextFormat = "sent %p pk (%l)"
*.host8.app[2].messageLength = 20B
*.host8.app[2].sendInterval = 1ms
*.host8.app[2].startTime = 51ms
*.host8.app[2].stopTime = 52ms
*.host8.app[2].display-name = "type2_5"
*.host8.app[2].destPort = 1000
*.host8.app[3].typename = "UdpBasicApp"
*.host8.app[3].destAddresses = "host5"
*.host8.app[3].source.packetNameFormat = "%M-%m-%c"
*.host8.app[3].source.displayStringTextFormat = "sent %p pk (%l)"
*.host8.app[3].messageLength = 20B
*.host8.app[3].sendInterval = 1ms
*.host8.app[3].startTime = 57ms
*.host8.app[3].stopTime = 73ms
*.host8.app[3].display-name = "type2_5"
*.host8.app[3].destPort = 1000
*.host8.app[4].typename = "UdpBasicApp"
*.host8.app[4].destAddresses = "host5"
*.host8.app[4].source.packetNameFormat = "%M-%m-%c"
*.host8.app[4].source.displayStringTextFormat = "sent %p pk (%l)"
*.host8.app[4].messageLength = 20B
*.host8.app[4].sendInterval = 1ms
*.host8.app[4].startTime = 77ms
*.host8.app[4].stopTime = 85ms
*.host8.app[4].display-name = "type2_5"
*.host8.app[4].destPort = 1000
*.host9.numApps = 3
*.host9.app[0].typename = "UdpSinkApp"
*.host9.app[0].io.localPort = 1000
*.host9.app[1].typename = "UdpSinkApp"
*.host9.app[1].io.localPort = 1001
*.host9.app[2].typename = "UdpSinkApp"
*.host9.app[2].io.localPort = 1002
*.host10.numApps = 8