
[General]
network = TSN_multipath
sim-time-limit = 10ms

# disable automatic MAC forwarding table configuration
*.macForwardingTableConfigurator.typename = ""

# enable frame replication and elimination
*.*.hasStreamRedundancy = true

# enable stream policing in layer 2
*.*.bridging.streamRelay.typename = "StreamRelayLayer"
*.*.bridging.streamCoder.typename = "StreamCoderLayer"

# enable automatic stream redundancy configurator
*.streamRedundancyConfigurator.typename = "StreamRedundancyConfigurator"

*.host0.eth[0].bitrate = 100Mbps
*.switch0.eth[0].bitrate = 100Mbps
*.switch0.eth[1].bitrate = 160Mbps
*.switch0.eth[2].bitrate = 130Mbps
*.switch0.eth[3].bitrate = 140Mbps
*.switch0.eth[4].bitrate = 150Mbps
*.switch0.eth[5].bitrate = 130Mbps
*.switch0.eth[6].bitrate = 150Mbps
*.switch0.eth[7].bitrate = 240Mbps
*.switch0.eth[8].bitrate = 180Mbps
*.switch0.eth[9].bitrate = 150Mbps
*.switch0.eth[10].bitrate = 210Mbps
*.switch0.eth[11].bitrate = 120Mbps
*.switch0.eth[12].bitrate = 200Mbps
*.switch0.eth[13].bitrate = 210Mbps
*.host1.eth[0].bitrate = 100Mbps
*.switch1.eth[0].bitrate = 100Mbps
*.switch1.eth[1].bitrate = 160Mbps
*.switch1.eth[2].bitrate = 130Mbps
*.switch1.eth[3].bitrate = 180Mbps
*.switch1.eth[4].bitrate = 190Mbps
*.switch1.eth[5].bitrate = 130Mbps
*.switch1.eth[6].bitrate = 230Mbps
*.switch1.eth[7].bitrate = 140Mbps
*.host2.eth[0].bitrate = 100Mbps
*.switch2.eth[0].bitrate = 100Mbps
*.switch2.eth[1].bitrate = 130Mbps
*.switch2.eth[2].bitrate = 120Mbps
*.switch2.eth[3].bitrate = 190Mbps
*.switch2.eth[4].bitrate = 120Mbps
*.switch2.eth[5].bitrate = 150Mbps
*.switch2.eth[6].bitrate = 130Mbps
*.switch2.eth[7].bitrate = 170Mbps
*.switch2.eth[8].bitrate = 170Mbps
*.switch2.eth[9].bitrate = 150Mbps
*.switch2.eth[10].bitrate = 150Mbps
*.host3.eth[0].bitrate = 100Mbps
*.switch3.eth[0].bitrate = 100Mbps
*.switch3.eth[1].bitrate = 140Mbps
*.switch3.eth[2].bitrate = 170Mbps
*.switch3.eth[3].bitrate = 240Mbps
*.switch3.eth[4].bitrate = 120Mbps
*.switch3.eth[5].bitrate = 150Mbps
*.switch3.eth[6].bitrate = 180Mbps
*.switch3.eth[7].bitrate = 210Mbps
*.switch3.eth[8].bitrate = 200Mbps
*.switch3.eth[9].bitrate = 170Mbps
*.host4.eth[0].bitrate = 100Mbps
*.switch4.eth[0].bitrate = 100Mbps
*.switch4.eth[1].bitrate = 150Mbps
*.switch4.eth[2].bitrate = 120Mbps
*.switch4.eth[3].bitrate = 240Mbps
*.switch4.eth[4].bitrate = 180Mbps
*.switch4.eth[5].bitrate = 170Mbps
*.switch4.eth[6].bitrate = 210Mbps
*.switch4.eth[7].bitrate = 190Mbps
*.switch4.eth[8].bitrate = 230Mbps
*.switch4.eth[9].bitrate = 140Mbps
*.switch4.eth[10].bitrate = 220Mbps
*.switch4.eth[11].bitrate = 170Mbps
*.switch4.eth[12].bitrate = 180Mbps
*.host5.eth[0].bitrate = 100Mbps
*.switch5.eth[0].bitrate = 100Mbps
*.switch5.eth[1].bitrate = 130Mbps
*.switch5.eth[2].bitrate = 130Mbps
*.switch5.eth[3].bitrate = 190Mbps
*.switch5.eth[4].bitrate = 120Mbps
*.switch5.eth[5].bitrate = 190Mbps
*.switch5.eth[6].bitrate = 150Mbps
*.switch5.eth[7].bitrate = 190Mbps
*.switch5.eth[8].bitrate = 200Mbps
*.switch5.eth[9].bitrate = 220Mbps
*.switch5.eth[10].bitrate = 120Mbps
*.switch5.eth[11].bitrate = 220Mbps
*.switch5.eth[12].bitrate = 140Mbps
*.switch5.eth[13].bitrate = 180Mbps
*.host6.eth[0].bitrate = 100Mbps
*.switch6.eth[0].bitrate = 100Mbps
*.switch6.eth[1].bitrate = 120Mbps
*.switch6.eth[2].bitrate = 150Mbps
*.switch6.eth[3].bitrate = 120Mbps
*.switch6.eth[4].bitrate = 210Mbps
*.switch6.eth[5].bitrate = 130Mbps
*.switch6.eth[6].bitrate = 170Mbps
*.switch6.eth[7].bitrate = 140Mbps
*.switch6.eth[8].bitrate = 170Mbps
*.switch6.eth[9].bitrate = 120Mbps
*.switch6.eth[10].bitrate = 170Mbps
*.switch6.eth[11].bitrate = 160Mbps
*.switch6.eth[12].bitrate = 150Mbps
*.host7.eth[0].bitrate = 100Mbps
*.switch7.eth[0].bitrate = 100Mbps
*.switch7.eth[1].bitrate = 150Mbps
*.switch7.eth[2].bitrate = 180Mbps
*.switch7.eth[3].bitrate = 180Mbps
*.switch7.eth[4].bitrate = 230Mbps
*.switch7.eth[5].bitrate = 170Mbps
*.switch7.eth[6].bitrate = 120Mbps
*.switch7.eth[7].bitrate = 190Mbps
*.switch7.eth[8].bitrate = 200Mbps
*.host8.eth[0].bitrate = 100Mbps
*.switch8.eth[0].bitrate = 100Mbps
*.switch8.eth[1].bitrate = 150Mbps
*.switch8.eth[2].bitrate = 140Mbps
*.switch8.eth[3].bitrate = 120Mbps
*.switch8.eth[4].bitrate = 200Mbps
*.switch8.eth[5].bitrate = 230Mbps
*.switch8.eth[6].bitrate = 150Mbps
*.switch8.eth[7].bitrate = 170Mbps
*.switch8.eth[8].bitrate = 180Mbps
*.switch8.eth[9].bitrate = 160Mbps
*.switch8.eth[10].bitrate = 190Mbps
*.switch8.eth[11].bitrate = 140Mbps
*.host9.eth[0].bitrate = 100Mbps
*.switch9.eth[0].bitrate = 100Mbps
*.switch9.eth[1].bitrate = 240Mbps
*.switch9.eth[2].bitrate = 130Mbps
*.switch9.eth[3].bitrate = 220Mbps
*.switch9.eth[4].bitrate = 170Mbps
*.switch9.eth[5].bitrate = 210Mbps
*.switch9.eth[6].bitrate = 140Mbps
*.switch9.eth[7].bitrate = 150Mbps
*.switch9.eth[8].bitrate = 180Mbps
*.switch9.eth[9].bitrate = 150Mbps
*.switch9.eth[10].bitrate = 200Mbps
*.switch9.eth[11].bitrate = 140Mbps

# apps
            
*.host0.numApps = 2

*.host0.app[0].typename = "UdpSourceApp"
*.host0.app[0].io.destAddress = "host8"
*.host0.app[0].source.packetNameFormat = "%M-%m-%c"
*.host0.app[0].source.displayStringTextFormat = "sent %p pk (%l)"
*.host0.app[0].source.packetLength = 1150B
*.host0.app[0].source.productionInterval = 100us
*.host0.app[0].display-name = "type1_0"
*.host0.app[0].io.destPort = 1000
                            
*.host0.app[1].typename = "UdpSinkApp"
*.host0.app[1].io.localPort = 1000
                        
*.host1.numApps = 55

*.host1.app[0].typename = "UdpSinkApp"
*.host1.app[0].io.localPort = 1000
                        
*.host1.app[1].typename = "UdpBasicApp"
*.host1.app[1].destAddresses = "host0"
*.host1.app[1].source.packetNameFormat = "%M-%m-%c"
*.host1.app[1].source.displayStringTextFormat = "sent %p pk (%l)"
*.host1.app[1].messageLength = 900B
*.host1.app[1].sendInterval = 100us
*.host1.app[1].startTime = 0us
*.host1.app[1].stopTime = 200us
*.host1.app[1].display-name = "type2_5"
*.host1.app[1].destPort = 1000
                            
*.host1.app[2].typename = "UdpBasicApp"
*.host1.app[2].destAddresses = "host0"
*.host1.app[2].source.packetNameFormat = "%M-%m-%c"
*.host1.app[2].source.displayStringTextFormat = "sent %p pk (%l)"
*.host1.app[2].messageLength = 900B
*.host1.app[2].sendInterval = 100us
*.host1.app[2].startTime = 300us
*.host1.app[2].stopTime = 900us
*.host1.app[2].display-name = "type2_5"
*.host1.app[2].destPort = 1000
                            
*.host1.app[3].typename = "UdpBasicApp"
*.host1.app[3].destAddresses = "host0"
*.host1.app[3].source.packetNameFormat = "%M-%m-%c"
*.host1.app[3].source.displayStringTextFormat = "sent %p pk (%l)"
*.host1.app[3].messageLength = 900B
*.host1.app[3].sendInterval = 100us
*.host1.app[3].startTime = 1200us
*.host1.app[3].stopTime = 1500us
*.host1.app[3].display-name = "type2_5"
*.host1.app[3].destPort = 1000
                            
*.host1.app[4].typename = "UdpBasicApp"
*.host1.app[4].destAddresses = "host0"
*.host1.app[4].source.packetNameFormat = "%M-%m-%c"
*.host1.app[4].source.displayStringTextFormat = "sent %p pk (%l)"
*.host1.app[4].messageLength = 900B
*.host1.app[4].sendInterval = 100us
*.host1.app[4].startTime = 1600us
*.host1.app[4].stopTime = 1700us
*.host1.app[4].display-name = "type2_5"
*.host1.app[4].destPort = 1000
                            
*.host1.app[5].typename = "UdpBasicApp"
*.host1.app[5].destAddresses = "host0"
*.host1.app[5].source.packetNameFormat = "%M-%m-%c"
*.host1.app[5].source.displayStringTextFormat = "sent %p pk (%l)"
*.host1.app[5].messageLength = 900B
*.host1.app[5].sendInterval = 100us
*.host1.app[5].startTime = 2200us
*.host1.app[5].stopTime = 2500us
*.host1.app[5].display-name = "type2_5"
*.host1.app[5].destPort = 1000
                            
*.host1.app[6].typename = "UdpBasicApp"
*.host1.app[6].destAddresses = "host0"
*.host1.app[6].source.packetNameFormat = "%M-%m-%c"
*.host1.app[6].source.displayStringTextFormat = "sent %p pk (%l)"
*.host1.app[6].messageLength = 900B
*.host1.app[6].sendInterval = 100us
*.host1.app[6].startTime = 2600us
*.host1.app[6].stopTime = 2700us
*.host1.app[6].display-name = "type2_5"
*.host1.app[6].destPort = 1000
                            
*.host1.app[7].typename = "UdpBasicApp"
*.host1.app[7].destAddresses = "host0"
*.host1.app[7].source.packetNameFormat = "%M-%m-%c"
*.host1.app[7].source.displayStringTextFormat = "sent %p pk (%l)"
*.host1.app[7].messageLength = 900B
*.host1.app[7].sendInterval = 100us
*.host1.app[7].startTime = 2900us
*.host1.app[7].stopTime = 3100us
*.host1.app[7].display-name = "type2_5"
*.host1.app[7].destPort = 1000
                            
*.host1.app[8].typename = "UdpBasicApp"
*.host1.app[8].destAddresses = "host0"
*.host1.app[8].source.packetNameFormat = "%M-%m-%c"
*.host1.app[8].source.displayStringTextFormat = "sent %p pk (%l)"
*.host1.app[8].messageLength = 900B
*.host1.app[8].sendInterval = 100us
*.host1.app[8].startTime = 3200us
*.host1.app[8].stopTime = 3300us
*.host1.app[8].display-name = "type2_5"
*.host1.app[8].destPort = 1000
                            
*.host1.app[9].typename = "UdpBasicApp"
*.host1.app[9].destAddresses = "host0"
*.host1.app[9].source.packetNameFormat = "%M-%m-%c"
*.host1.app[9].source.displayStringTextFormat = "sent %p pk (%l)"
*.host1.app[9].messageLength = 900B
*.host1.app[9].sendInterval = 100us
*.host1.app[9].startTime = 3400us
*.host1.app[9].stopTime = 3500us
*.host1.app[9].display-name = "type2_5"
*.host1.app[9].destPort = 1000
                            
*.host1.app[10].typename = "UdpBasicApp"
*.host1.app[10].destAddresses = "host0"
*.host1.app[10].source.packetNameFormat = "%M-%m-%c"
*.host1.app[10].source.displayStringTextFormat = "sent %p pk (%l)"
*.host1.app[10].messageLength = 900B
*.host1.app[10].sendInterval = 100us
*.host1.app[10].startTime = 3600us
*.host1.app[10].stopTime = 3800us
*.host1.app[10].display-name = "type2_5"
*.host1.app[10].destPort = 1000
                            
*.host1.app[11].typename = "UdpBasicApp"
*.host1.app[11].destAddresses = "host0"
*.host1.app[11].source.packetNameFormat = "%M-%m-%c"
*.host1.app[11].source.displayStringTextFormat = "sent %p pk (%l)"
*.host1.app[11].messageLength = 900B
*.host1.app[11].sendInterval = 100us
*.host1.app[11].startTime = 3900us
*.host1.app[11].stopTime = 4000us
*.host1.app[11].display-name = "type2_5"
*.host1.app[11].destPort = 1000
                            
*.host1.app[12].typename = "UdpBasicApp"
*.host1.app[12].destAddresses = "host0"
*.host1.app[12].source.packetNameFormat = "%M-%m-%c"
*.host1.app[12].source.displayStringTextFormat = "sent %p pk (%l)"
*.host1.app[12].messageLength = 900B
*.host1.app[12].sendInterval = 100us
*.host1.app[12].startTime = 4100us
*.host1.app[12].stopTime = 4300us
*.host1.app[12].display-name = "type2_5"
*.host1.app[12].destPort = 1000
                            
*.host1.app[13].typename = "UdpBasicApp"
*.host1.app[13].destAddresses = "host0"
*.host1.app[13].source.packetNameFormat = "%M-%m-%c"
*.host1.app[13].source.displayStringTextFormat = "sent %p pk (%l)"
*.host1.app[13].messageLength = 900B
*.host1.app[13].sendInterval = 100us
*.host1.app[13].startTime = 4400us
*.host1.app[13].stopTime = 5400us
*.host1.app[13].display-name = "type2_5"
*.host1.app[13].destPort = 1000
                            
*.host1.app[14].typename = "UdpBasicApp"
*.host1.app[14].destAddresses = "host0"
*.host1.app[14].source.packetNameFormat = "%M-%m-%c"
*.host1.app[14].source.displayStringTextFormat = "sent %p pk (%l)"
*.host1.app[14].messageLength = 900B
*.host1.app[14].sendInterval = 100us
*.host1.app[14].startTime = 5500us
*.host1.app[14].stopTime = 5700us
*.host1.app[14].display-name = "type2_5"
*.host1.app[14].destPort = 1000
                            
*.host1.app[15].typename = "UdpBasicApp"
*.host1.app[15].destAddresses = "host0"
*.host1.app[15].source.packetNameFormat = "%M-%m-%c"
*.host1.app[15].source.displayStringTextFormat = "sent %p pk (%l)"
*.host1.app[15].messageLength = 900B
*.host1.app[15].sendInterval = 100us
*.host1.app[15].startTime = 5900us
*.host1.app[15].stopTime = 6200us
*.host1.app[15].display-name = "type2_5"
*.host1.app[15].destPort = 1000
                            
*.host1.app[16].typename = "UdpBasicApp"
*.host1.app[16].destAddresses = "host0"
*.host1.app[16].source.packetNameFormat = "%M-%m-%c"
*.host1.app[16].source.displayStringTextFormat = "sent %p pk (%l)"
*.host1.app[16].messageLength = 900B
*.host1.app[16].sendInterval = 100us
*.host1.app[16].startTime = 6300us
*.host1.app[16].stopTime = 7000us
*.host1.app[16].display-name = "type2_5"
*.host1.app[16].destPort = 1000
                            
*.host1.app[17].typename = "UdpBasicApp"
*.host1.app[17].destAddresses = "host0"
*.host1.app[17].source.packetNameFormat = "%M-%m-%c"
*.host1.app[17].source.displayStringTextFormat = "sent %p pk (%l)"
*.host1.app[17].messageLength = 900B
*.host1.app[17].sendInterval = 100us
*.host1.app[17].startTime = 7100us
*.host1.app[17].stopTime = 8100us
*.host1.app[17].display-name = "type2_5"
*.host1.app[17].destPort = 1000
                            
*.host1.app[18].typename = "UdpBasicApp"
*.host1.app[18].destAddresses = "host0"
*.host1.app[18].source.packetNameFormat = "%M-%m-%c"
*.host1.app[18].source.displayStringTextFormat = "sent %p pk (%l)"
*.host1.app[18].messageLength = 900B
*.host1.app[18].sendInterval = 100us
*.host1.app[18].startTime = 8200us
*.host1.app[18].stopTime = 8300us
*.host1.app[18].display-name = "type2_5"
*.host1.app[18].destPort = 1000
                            
*.host1.app[19].typename = "UdpBasicApp"
*.host1.app[19].destAddresses = "host0"
*.host1.app[19].source.packetNameFormat = "%M-%m-%c"
*.host1.app[19].source.displayStringTextFormat = "sent %p pk (%l)"
*.host1.app[19].messageLength = 900B
*.host1.app[19].sendInterval = 100us
*.host1.app[19].startTime = 8400us
*.host1.app[19].stopTime = 8600us
*.host1.app[19].display-name = "type2_5"
*.host1.app[19].destPort = 1000
                            
*.host1.app[20].typename = "UdpBasicApp"
*.host1.app[20].destAddresses = "host0"
*.host1.app[20].source.packetNameFormat = "%M-%m-%c"
*.host1.app[20].source.displayStringTextFormat = "sent %p pk (%l)"
*.host1.app[20].messageLength = 900B
*.host1.app[20].sendInterval = 100us
*.host1.app[20].startTime = 8700us
*.host1.app[20].stopTime = 8800us
*.host1.app[20].display-name = "type2_5"
*.host1.app[20].destPort = 1000
                            
*.host1.app[21].typename = "UdpBasicApp"
*.host1.app[21].destAddresses = "host0"
*.host1.app[21].source.packetNameFormat = "%M-%m-%c"
*.host1.app[21].source.displayStringTextFormat = "sent %p pk (%l)"
*.host1.app[21].messageLength = 900B
*.host1.app[21].sendInterval = 100us
*.host1.app[21].startTime = 9000us
*.host1.app[21].stopTime = 9100us
*.host1.app[21].display-name = "type2_5"
*.host1.app[21].destPort = 1000
                            
*.host1.app[22].typename = "UdpBasicApp"
*.host1.app[22].destAddresses = "host0"
*.host1.app[22].source.packetNameFormat = "%M-%m-%c"
*.host1.app[22].source.displayStringTextFormat = "sent %p pk (%l)"
*.host1.app[22].messageLength = 900B
*.host1.app[22].sendInterval = 100us
*.host1.app[22].startTime = 9200us
*.host1.app[22].stopTime = 9400us
*.host1.app[22].display-name = "type2_5"
*.host1.app[22].destPort = 1000
                            
*.host1.app[23].typename = "UdpBasicApp"
*.host1.app[23].destAddresses = "host0"
*.host1.app[23].source.packetNameFormat = "%M-%m-%c"
*.host1.app[23].source.displayStringTextFormat = "sent %p pk (%l)"
*.host1.app[23].messageLength = 900B
*.host1.app[23].sendInterval = 100us
*.host1.app[23].startTime = 9600us
*.host1.app[23].stopTime = 10000us
*.host1.app[23].display-name = "type2_5"
*.host1.app[23].destPort = 1000
                            
*.host1.app[24].typename = "UdpBasicApp"
*.host1.app[24].destAddresses = "host6"
*.host1.app[24].source.packetNameFormat = "%M-%m-%c"
*.host1.app[24].source.displayStringTextFormat = "sent %p pk (%l)"
*.host1.app[24].messageLength = 950B
*.host1.app[24].sendInterval = 100us
*.host1.app[24].startTime = 0us
*.host1.app[24].stopTime = 100us
*.host1.app[24].display-name = "type2_9"
*.host1.app[24].destPort = 1002
                            
*.host1.app[25].typename = "UdpBasicApp"
*.host1.app[25].destAddresses = "host6"
*.host1.app[25].source.packetNameFormat = "%M-%m-%c"
*.host1.app[25].source.displayStringTextFormat = "sent %p pk (%l)"
*.host1.app[25].messageLength = 950B
*.host1.app[25].sendInterval = 100us
*.host1.app[25].startTime = 500us
*.host1.app[25].stopTime = 1300us
*.host1.app[25].display-name = "type2_9"
*.host1.app[25].destPort = 1002
                            
*.host1.app[26].typename = "UdpBasicApp"
*.host1.app[26].destAddresses = "host6"
*.host1.app[26].source.packetNameFormat = "%M-%m-%c"
*.host1.app[26].source.displayStringTextFormat = "sent %p pk (%l)"
*.host1.app[26].messageLength = 950B
*.host1.app[26].sendInterval = 100us
*.host1.app[26].startTime = 1400us
*.host1.app[26].stopTime = 1800us
*.host1.app[26].display-name = "type2_9"
*.host1.app[26].destPort = 1002
                            
*.host1.app[27].typename = "UdpBasicApp"
*.host1.app[27].destAddresses = "host6"
*.host1.app[27].source.packetNameFormat = "%M-%m-%c"
*.host1.app[27].source.displayStringTextFormat = "sent %p pk (%l)"
*.host1.app[27].messageLength = 950B
*.host1.app[27].sendInterval = 100us
*.host1.app[27].startTime = 2600us
*.host1.app[27].stopTime = 2900us
*.host1.app[27].display-name = "type2_9"
*.host1.app[27].destPort = 1002
                            
*.host1.app[28].typename = "UdpBasicApp"
*.host1.app[28].destAddresses = "host6"
*.host1.app[28].source.packetNameFormat = "%M-%m-%c"
*.host1.app[28].source.displayStringTextFormat = "sent %p pk (%l)"
*.host1.app[28].messageLength = 950B
*.host1.app[28].sendInterval = 100us
*.host1.app[28].startTime = 3000us
*.host1.app[28].stopTime = 3100us
*.host1.app[28].display-name = "type2_9"
*.host1.app[28].destPort = 1002
                            
*.host1.app[29].typename = "UdpBasicApp"
*.host1.app[29].destAddresses = "host6"
*.host1.app[29].source.packetNameFormat = "%M-%m-%c"
*.host1.app[29].source.displayStringTextFormat = "sent %p pk (%l)"
*.host1.app[29].messageLength = 950B
*.host1.app[29].sendInterval = 100us
*.host1.app[29].startTime = 3400us
*.host1.app[29].stopTime = 4000us
*.host1.app[29].display-name = "type2_9"
*.host1.app[29].destPort = 1002
                            
*.host1.app[30].typename = "UdpBasicApp"
*.host1.app[30].destAddresses = "host6"
*.host1.app[30].source.packetNameFormat = "%M-%m-%c"
*.host1.app[30].source.displayStringTextFormat = "sent %p pk (%l)"
*.host1.app[30].messageLength = 950B
*.host1.app[30].sendInterval = 100us
*.host1.app[30].startTime = 4100us
*.host1.app[30].stopTime = 4200us
*.host1.app[30].display-name = "type2_9"
*.host1.app[30].destPort = 1002
                            
*.host1.app[31].typename = "UdpBasicApp"
*.host1.app[31].destAddresses = "host6"
*.host1.app[31].source.packetNameFormat = "%M-%m-%c"
*.host1.app[31].source.displayStringTextFormat = "sent %p pk (%l)"
*.host1.app[31].messageLength = 950B
*.host1.app[31].sendInterval = 100us
*.host1.app[31].startTime = 4300us
*.host1.app[31].stopTime = 4400us
*.host1.app[31].display-name = "type2_9"
*.host1.app[31].destPort = 1002
                            
*.host1.app[32].typename = "UdpBasicApp"
*.host1.app[32].destAddresses = "host6"
*.host1.app[32].source.packetNameFormat = "%M-%m-%c"
*.host1.app[32].source.displayStringTextFormat = "sent %p pk (%l)"
*.host1.app[32].messageLength = 950B
*.host1.app[32].sendInterval = 100us
*.host1.app[32].startTime = 4600us
*.host1.app[32].stopTime = 5200us
*.host1.app[32].display-name = "type2_9"
*.host1.app[32].destPort = 1002
                            
*.host1.app[33].typename = "UdpBasicApp"
*.host1.app[33].destAddresses = "host6"
*.host1.app[33].source.packetNameFormat = "%M-%m-%c"
*.host1.app[33].source.displayStringTextFormat = "sent %p pk (%l)"
*.host1.app[33].messageLength = 950B
*.host1.app[33].sendInterval = 100us
*.host1.app[33].startTime = 5400us
*.host1.app[33].stopTime = 5500us
*.host1.app[33].display-name = "type2_9"
*.host1.app[33].destPort = 1002
                            
*.host1.app[34].typename = "UdpBasicApp"
*.host1.app[34].destAddresses = "host6"
*.host1.app[34].source.packetNameFormat = "%M-%m-%c"
*.host1.app[34].source.displayStringTextFormat = "sent %p pk (%l)"
*.host1.app[34].messageLength = 950B
*.host1.app[34].sendInterval = 100us
*.host1.app[34].startTime = 5900us
*.host1.app[34].stopTime = 6400us
*.host1.app[34].display-name = "type2_9"
*.host1.app[34].destPort = 1002
                            
*.host1.app[35].typename = "UdpBasicApp"
*.host1.app[35].destAddresses = "host6"
*.host1.app[35].source.packetNameFormat = "%M-%m-%c"
*.host1.app[35].source.displayStringTextFormat = "sent %p pk (%l)"
*.host1.app[35].messageLength = 950B
*.host1.app[35].sendInterval = 100us
*.host1.app[35].startTime = 6500us
*.host1.app[35].stopTime = 7400us
*.host1.app[35].display-name = "type2_9"
*.host1.app[35].destPort = 1002
                            
*.host1.app[36].typename = "UdpBasicApp"
*.host1.app[36].destAddresses = "host6"
*.host1.app[36].source.packetNameFormat = "%M-%m-%c"
*.host1.app[36].source.displayStringTextFormat = "sent %p pk (%l)"
*.host1.app[36].messageLength = 950B
*.host1.app[36].sendInterval = 100us
*.host1.app[36].startTime = 7500us
*.host1.app[36].stopTime = 7600us
*.host1.app[36].display-name = "type2_9"
*.host1.app[36].destPort = 1002
                            
*.host1.app[37].typename = "UdpBasicApp"
*.host1.app[37].destAddresses = "host6"
*.host1.app[37].source.packetNameFormat = "%M-%m-%c"
*.host1.app[37].source.displayStringTextFormat = "sent %p pk (%l)"
*.host1.app[37].messageLength = 950B
*.host1.app[37].sendInterval = 100us
*.host1.app[37].startTime = 8300us
*.host1.app[37].stopTime = 8800us
*.host1.app[37].display-name = "type2_9"
*.host1.app[37].destPort = 1002
                            
*.host1.app[38].typename = "UdpBasicApp"
*.host1.app[38].destAddresses = "host6"
*.host1.app[38].source.packetNameFormat = "%M-%m-%c"
*.host1.app[38].source.displayStringTextFormat = "sent %p pk (%l)"
*.host1.app[38].messageLength = 950B
*.host1.app[38].sendInterval = 100us
*.host1.app[38].startTime = 9100us
*.host1.app[38].stopTime = 9400us
*.host1.app[38].display-name = "type2_9"
*.host1.app[38].destPort = 1002
                            
*.host1.app[39].typename = "UdpBasicApp"
*.host1.app[39].destAddresses = "host6"
*.host1.app[39].source.packetNameFormat = "%M-%m-%c"
*.host1.app[39].source.displayStringTextFormat = "sent %p pk (%l)"
*.host1.app[39].messageLength = 950B
*.host1.app[39].sendInterval = 100us
*.host1.app[39].startTime = 9500us
*.host1.app[39].stopTime = 10000us
*.host1.app[39].display-name = "type2_9"
*.host1.app[39].destPort = 1002
                            
*.host1.app[40].typename = "UdpSinkApp"
*.host1.app[40].io.localPort = 1001
                        
*.host1.app[41].typename = "UdpBasicApp"
*.host1.app[41].destAddresses = "host4"
*.host1.app[41].source.packetNameFormat = "%M-%m-%c"
*.host1.app[41].source.displayStringTextFormat = "sent %p pk (%l)"
*.host1.app[41].messageLength = 1050B
*.host1.app[41].sendInterval = 100us
*.host1.app[41].startTime = 0us
*.host1.app[41].stopTime = 400us
*.host1.app[41].display-name = "type2_17"
*.host1.app[41].destPort = 1004
                            
*.host1.app[42].typename = "UdpBasicApp"
*.host1.app[42].destAddresses = "host4"
*.host1.app[42].source.packetNameFormat = "%M-%m-%c"
*.host1.app[42].source.displayStringTextFormat = "sent %p pk (%l)"
*.host1.app[42].messageLength = 1050B
*.host1.app[42].sendInterval = 100us
*.host1.app[42].startTime = 800us
*.host1.app[42].stopTime = 1400us
*.host1.app[42].display-name = "type2_17"
*.host1.app[42].destPort = 1004
                            
*.host1.app[43].typename = "UdpBasicApp"
*.host1.app[43].destAddresses = "host4"
*.host1.app[43].source.packetNameFormat = "%M-%m-%c"
*.host1.app[43].source.displayStringTextFormat = "sent %p pk (%l)"
*.host1.app[43].messageLength = 1050B
*.host1.app[43].sendInterval = 100us
*.host1.app[43].startTime = 1700us
*.host1.app[43].stopTime = 1800us
*.host1.app[43].display-name = "type2_17"
*.host1.app[43].destPort = 1004
                            
*.host1.app[44].typename = "UdpBasicApp"
*.host1.app[44].destAddresses = "host4"
*.host1.app[44].source.packetNameFormat = "%M-%m-%c"
*.host1.app[44].source.displayStringTextFormat = "sent %p pk (%l)"
*.host1.app[44].messageLength = 1050B
*.host1.app[44].sendInterval = 100us
*.host1.app[44].startTime = 2100us
*.host1.app[44].stopTime = 2200us
*.host1.app[44].display-name = "type2_17"
*.host1.app[44].destPort = 1004
                            
*.host1.app[45].typename = "UdpBasicApp"
*.host1.app[45].destAddresses = "host4"
*.host1.app[45].source.packetNameFormat = "%M-%m-%c"
*.host1.app[45].source.displayStringTextFormat = "sent %p pk (%l)"
*.host1.app[45].messageLength = 1050B
*.host1.app[45].sendInterval = 100us
*.host1.app[45].startTime = 2400us
*.host1.app[45].stopTime = 2500us
*.host1.app[45].display-name = "type2_17"
*.host1.app[45].destPort = 1004
                            
*.host1.app[46].typename = "UdpBasicApp"
*.host1.app[46].destAddresses = "host4"
*.host1.app[46].source.packetNameFormat = "%M-%m-%c"
*.host1.app[46].source.displayStringTextFormat = "sent %p pk (%l)"
*.host1.app[46].messageLength = 1050B
*.host1.app[46].sendInterval = 100us
*.host1.app[46].startTime = 3400us
*.host1.app[46].stopTime = 3600us
*.host1.app[46].display-name = "type2_17"
*.host1.app[46].destPort = 1004
                            
*.host1.app[47].typename = "UdpBasicApp"
*.host1.app[47].destAddresses = "host4"
*.host1.app[47].source.packetNameFormat = "%M-%m-%c"
*.host1.app[47].source.displayStringTextFormat = "sent %p pk (%l)"
*.host1.app[47].messageLength = 1050B
*.host1.app[47].sendInterval = 100us
*.host1.app[47].startTime = 3700us
*.host1.app[47].stopTime = 4000us
*.host1.app[47].display-name = "type2_17"
*.host1.app[47].destPort = 1004
                            
*.host1.app[48].typename = "UdpBasicApp"
*.host1.app[48].destAddresses = "host4"
*.host1.app[48].source.packetNameFormat = "%M-%m-%c"
*.host1.app[48].source.displayStringTextFormat = "sent %p pk (%l)"
*.host1.app[48].messageLength = 1050B
*.host1.app[48].sendInterval = 100us
*.host1.app[48].startTime = 5400us
*.host1.app[48].stopTime = 5500us
*.host1.app[48].display-name = "type2_17"
*.host1.app[48].destPort = 1004
                            
*.host1.app[49].typename = "UdpBasicApp"
*.host1.app[49].destAddresses = "host4"
*.host1.app[49].source.packetNameFormat = "%M-%m-%c"
*.host1.app[49].source.displayStringTextFormat = "sent %p pk (%l)"
*.host1.app[49].messageLength = 1050B
*.host1.app[49].sendInterval = 100us
*.host1.app[49].startTime = 5800us
*.host1.app[49].stopTime = 6400us
*.host1.app[49].display-name = "type2_17"
*.host1.app[49].destPort = 1004
                            
*.host1.app[50].typename = "UdpBasicApp"
*.host1.app[50].destAddresses = "host4"
*.host1.app[50].source.packetNameFormat = "%M-%m-%c"
*.host1.app[50].source.displayStringTextFormat = "sent %p pk (%l)"
*.host1.app[50].messageLength = 1050B
*.host1.app[50].sendInterval = 100us
*.host1.app[50].startTime = 6500us
*.host1.app[50].stopTime = 7200us
*.host1.app[50].display-name = "type2_17"
*.host1.app[50].destPort = 1004
                            
*.host1.app[51].typename = "UdpBasicApp"
*.host1.app[51].destAddresses = "host4"
*.host1.app[51].source.packetNameFormat = "%M-%m-%c"
*.host1.app[51].source.displayStringTextFormat = "sent %p pk (%l)"
*.host1.app[51].messageLength = 1050B
*.host1.app[51].sendInterval = 100us
*.host1.app[51].startTime = 7900us
*.host1.app[51].stopTime = 8000us
*.host1.app[51].display-name = "type2_17"
*.host1.app[51].destPort = 1004
                            
*.host1.app[52].typename = "UdpBasicApp"
*.host1.app[52].destAddresses = "host4"
*.host1.app[52].source.packetNameFormat = "%M-%m-%c"
*.host1.app[52].source.displayStringTextFormat = "sent %p pk (%l)"
*.host1.app[52].messageLength = 1050B
*.host1.app[52].sendInterval = 100us
*.host1.app[52].startTime = 9600us
*.host1.app[52].stopTime = 9800us
*.host1.app[52].display-name = "type2_17"
*.host1.app[52].destPort = 1004
                            
*.host1.app[53].typename = "UdpBasicApp"
*.host1.app[53].destAddresses = "host4"
*.host1.app[53].source.packetNameFormat = "%M-%m-%c"
*.host1.app[53].source.displayStringTextFormat = "sent %p pk (%l)"
*.host1.app[53].messageLength = 1050B
*.host1.app[53].sendInterval = 100us
*.host1.app[53].startTime = 9900us
*.host1.app[53].stopTime = 10000us
*.host1.app[53].display-name = "type2_17"
*.host1.app[53].destPort = 1004
                            
*.host1.app[54].typename = "UdpSinkApp"
*.host1.app[54].io.localPort = 1002
                        
*.host2.numApps = 70

*.host2.app[0].typename = "UdpSourceApp"
*.host2.app[0].io.destAddress = "host4"
*.host2.app[0].source.packetNameFormat = "%M-%m-%c"
*.host2.app[0].source.displayStringTextFormat = "sent %p pk (%l)"
*.host2.app[0].source.packetLength = 700B
*.host2.app[0].source.productionInterval = 100us
*.host2.app[0].display-name = "type1_1"
*.host2.app[0].io.destPort = 1000
                            
*.host2.app[1].typename = "UdpBasicApp"
*.host2.app[1].destAddresses = "host6"
*.host2.app[1].source.packetNameFormat = "%M-%m-%c"
*.host2.app[1].source.displayStringTextFormat = "sent %p pk (%l)"
*.host2.app[1].messageLength = 900B
*.host2.app[1].sendInterval = 100us
*.host2.app[1].startTime = 0us
*.host2.app[1].stopTime = 100us
*.host2.app[1].display-name = "type2_0"
*.host2.app[1].destPort = 1000
                            
*.host2.app[2].typename = "UdpBasicApp"
*.host2.app[2].destAddresses = "host6"
*.host2.app[2].source.packetNameFormat = "%M-%m-%c"
*.host2.app[2].source.displayStringTextFormat = "sent %p pk (%l)"
*.host2.app[2].messageLength = 900B