[General]
network = TSN_multipath
sim-time-limit = 10ms
*.macForwardingTableConfigurator.typename = ""
*.*.hasStreamRedundancy = true
*.*.bridging.streamRelay.typename = "StreamRelayLayer"
*.*.bridging.streamCoder.typename = "StreamCoderLayer"
*.streamRedundancyConfigurator.typename = "StreamRedundancyConfigurator"
*.host0.eth[0].bitrate = 1000Mbps
*.switch0.eth[0].bitrate = 1000Mbps
*.switch0.eth[1].bitrate = 2400Mbps
*.switch0.eth[2].bitrate = 1600Mbps
*.switch0.eth[3].bitrate = 1400Mbps
*.switch0.eth[4].bitrate = 2000Mbps
*.switch0.eth[5].bitrate = 1900Mbps
*.switch0.eth[6].bitrate = 1500Mbps
*.switch0.eth[7].bitrate = 2100Mbps
*.switch0.eth[8].bitrate = 1300Mbps
*.switch0.eth[9].bitrate = 1200Mbps
*.switch0.eth[10].bitrate = 2200Mbps
*.switch0.eth[11].bitrate = 1600Mbps
*.switch0.eth[12].bitrate = 2100Mbps
*.switch0.eth[13].bitrate = 2400Mbps
*.switch0.eth[14].bitrate = 1600Mbps
*.switch0.eth[15].bitrate = 1500Mbps
*.switch0.eth[16].bitrate = 1800Mbps
*.switch0.eth[17].bitrate = 1600Mbps
*.host1.eth[0].bitrate = 1000Mbps
*.switch1.eth[0].bitrate = 1000Mbps
*.switch1.eth[1].bitrate = 1300Mbps
*.switch1.eth[2].bitrate = 1200Mbps
*.switch1.eth[3].bitrate = 1600Mbps
*.switch1.eth[4].bitrate = 1300Mbps
*.switch1.eth[5].bitrate = 1700Mbps
*.switch1.eth[6].bitrate = 2300Mbps
*.switch1.eth[7].bitrate = 2100Mbps
*.switch1.eth[8].bitrate = 2200Mbps
*.switch1.eth[9].bitrate = 1500Mbps
*.switch1.eth[10].bitrate = 1800Mbps
*.switch1.eth[11].bitrate = 1800Mbps
*.switch1.eth[12].bitrate = 1400Mbps
*.switch1.eth[13].bitrate = 1400Mbps
*.switch1.eth[14].bitrate = 1600Mbps
*.switch1.eth[15].bitrate = 1500Mbps
*.switch1.eth[16].bitrate = 1500Mbps
*.switch1.eth[17].bitrate = 1200Mbps
*.switch1.eth[18].bitrate = 2100Mbps
*.switch1.eth[19].bitrate = 1500Mbps
*.host2.eth[0].bitrate = 1000Mbps
*.switch2.eth[0].bitrate = 1000Mbps
*.switch2.eth[1].bitrate = 2400Mbps
*.switch2.eth[2].bitrate = 1200Mbps
*.switch2.eth[3].bitrate = 1800Mbps
*.switch2.eth[4].bitrate = 2300Mbps
*.switch2.eth[5].bitrate = 1200Mbps
*.switch2.eth[6].bitrate = 2400Mbps
*.switch2.eth[7].bitrate = 1600Mbps
*.switch2.eth[8].bitrate = 2300Mbps
*.switch2.eth[9].bitrate = 1500Mbps
*.switch2.eth[10].bitrate = 1900Mbps
*.switch2.eth[11].bitrate = 2400Mbps
*.switch2.eth[12].bitrate = 2000Mbps
*.switch2.eth[13].bitrate = 1500Mbps
*.switch2.eth[14].bitrate = 1500Mbps
*.switch2.eth[15].bitrate = 2400Mbps
*.switch2.eth[16].bitrate = 1300Mbps
*.switch2.eth[17].bitrate = 2000Mbps
*.switch2.eth[18].bitrate = 2200Mbps
*.switch2.eth[19].bitrate = 2100Mbps
*.switch2.eth[20].bitrate = 1400Mbps
*.switch2.eth[21].bitrate = 1400Mbps
*.switch2.eth[22].bitrate = 2200Mbps
*.switch2.eth[23].bitrate = 2300Mbps
*.host3.eth[0].bitrate = 1000Mbps
*.switch3.eth[0].bitrate = 1000Mbps
*.switch3.eth[1].bitrate = 1600Mbps
*.switch3.eth[2].bitrate = 2200Mbps
*.switch3.eth[3].bitrate = 1300Mbps
*.switch3.eth[4].bitrate = 2000Mbps
*.switch3.eth[5].bitrate = 2000Mbps
*.switch3.eth[6].bitrate = 1200Mbps
*.switch3.eth[7].bitrate = 2400Mbps
*.switch3.eth[8].bitrate = 1600Mbps
*.switch3.eth[9].bitrate = 2100Mbps
*.switch3.eth[10].bitrate = 2100Mbps
*.switch3.eth[11].bitrate = 1400Mbps
*.switch3.eth[12].bitrate = 1300Mbps
*.switch3.eth[13].bitrate = 1600Mbps
*.switch3.eth[14].bitrate = 1800Mbps
*.switch3.eth[15].bitrate = 2100Mbps
*.host4.eth[0].bitrate = 1000Mbps
*.switch4.eth[0].bitrate = 1000Mbps
*.switch4.eth[1].bitrate = 1200Mbps
*.switch4.eth[2].bitrate = 2300Mbps
*.switch4.eth[3].bitrate = 1300Mbps
*.switch4.eth[4].bitrate = 1600Mbps
*.switch4.eth[5].bitrate = 1600Mbps
*.switch4.eth[6].bitrate = 2400Mbps
*.switch4.eth[7].bitrate = 1900Mbps
*.switch4.eth[8].bitrate = 2400Mbps
*.switch4.eth[9].bitrate = 1400Mbps
*.switch4.eth[10].bitrate = 2100Mbps
*.switch4.eth[11].bitrate = 2200Mbps
*.switch4.eth[12].bitrate = 1200Mbps
*.switch4.eth[13].bitrate = 2200Mbps
*.switch4.eth[14].bitrate = 2100Mbps
*.switch4.eth[15].bitrate = 1400Mbps
*.switch4.eth[16].bitrate = 1700Mbps
*.switch4.eth[17].bitrate = 1500Mbps
*.switch4.eth[18].bitrate = 1700Mbps
*.host5.eth[0].bitrate = 1000Mbps
*.switch5.eth[0].bitrate = 1000Mbps
*.switch5.eth[1].bitrate = 1200Mbps
*.switch5.eth[2].bitrate = 2000Mbps
*.switch5.eth[3].bitrate = 1800Mbps
*.switch5.eth[4].bitrate = 1600Mbps
*.switch5.eth[5].bitrate = 2200Mbps
*.switch5.eth[6].bitrate = 1600Mbps
*.switch5.eth[7].bitrate = 1800Mbps
*.switch5.eth[8].bitrate = 1900Mbps
*.switch5.eth[9].bitrate = 1900Mbps
*.switch5.eth[10].bitrate = 2000Mbps
*.switch5.eth[11].bitrate = 2200Mbps
*.switch5.eth[12].bitrate = 1400Mbps
*.switch5.eth[13].bitrate = 1400Mbps
*.switch5.eth[14].bitrate = 1800Mbps
*.host6.eth[0].bitrate = 1000Mbps
*.switch6.eth[0].bitrate = 1000Mbps
*.switch6.eth[1].bitrate = 1600Mbps
*.switch6.eth[2].bitrate = 2400Mbps
*.switch6.eth[3].bitrate = 2100Mbps
*.switch6.eth[4].bitrate = 1500Mbps
*.switch6.eth[5].bitrate = 1200Mbps
*.switch6.eth[6].bitrate = 2400Mbps
*.switch6.eth[7].bitrate = 1200Mbps
*.switch6.eth[8].bitrate = 2300Mbps
*.switch6.eth[9].bitrate = 1200Mbps
*.switch6.eth[10].bitrate = 2400Mbps
*.switch6.eth[11].bitrate = 1600Mbps
*.switch6.eth[12].bitrate = 1300Mbps
*.switch6.eth[13].bitrate = 1200Mbps
*.switch6.eth[14].bitrate = 2400Mbps
*.switch6.eth[15].bitrate = 2200Mbps
*.switch6.eth[16].bitrate = 1400Mbps
*.host7.eth[0].bitrate = 1000Mbps
*.switch7.eth[0].bitrate = 1000Mbps
*.switch7.eth[1].bitrate = 1300Mbps
*.switch7.eth[2].bitrate = 1900Mbps
*.switch7.eth[3].bitrate = 2400Mbps
*.switch7.eth[4].bitrate = 1400Mbps
*.switch7.eth[5].bitrate = 2100Mbps
*.switch7.eth[6].bitrate = 2200Mbps
*.switch7.eth[7].bitrate = 1800Mbps
*.switch7.eth[8].bitrate = 1200Mbps
*.switch7.eth[9].bitrate = 1200Mbps
*.switch7.eth[10].bitrate = 1200Mbps
*.switch7.eth[11].bitrate = 1300Mbps
*.switch7.eth[12].bitrate = 1800Mbps
*.switch7.eth[13].bitrate = 2000Mbps
*.switch7.eth[14].bitrate = 1800Mbps
*.switch7.eth[15].bitrate = 1700Mbps
*.switch7.eth[16].bitrate = 1200Mbps
*.switch7.eth[17].bitrate = 1400Mbps
*.switch7.eth[18].bitrate = 1500Mbps
*.switch7.eth[19].bitrate = 1800Mbps
*.switch7.eth[20].bitrate = 1800Mbps
*.host8.eth[0].bitrate = 1000Mbps
*.switch8.eth[0].bitrate = 1000Mbps
*.switch8.eth[1].bitrate = 1400Mbps
*.switch8.eth[2].bitrate = 2400Mbps
*.switch8.eth[3].bitrate = 1800Mbps
*.switch8.eth[4].bitrate = 2400Mbps
*.switch8.eth[5].bitrate = 1200Mbps
*.switch8.eth[6].bitrate = 1600Mbps
*.switch8.eth[7].bitrate = 1400Mbps
*.switch8.eth[8].bitrate = 2400Mbps
*.switch8.eth[9].bitrate = 2100Mbps
*.switch8.eth[10].bitrate = 1900Mbps
*.switch8.eth[11].bitrate = 2400Mbps
*.switch8.eth[12].bitrate = 1500Mbps
*.switch8.eth[13].bitrate = 1200Mbps
*.switch8.eth[14].bitrate = 1400Mbps
*.switch8.eth[15].bitrate = 1500Mbps
*.switch8.eth[16].bitrate = 1500Mbps
*.switch8.eth[17].bitrate = 1900Mbps
*.switch8.eth[18].bitrate = 1400Mbps
*.switch8.eth[19].bitrate = 1800Mbps
*.switch8.eth[20].bitrate = 2300Mbps
*.switch8.eth[21].bitrate = 1900Mbps
*.switch8.eth[22].bitrate = 1200Mbps
*.switch8.eth[23].bitrate = 1800Mbps
*.switch8.eth[24].bitrate = 1300Mbps
*.switch8.eth[25].bitrate = 2300Mbps
*.switch8.eth[26].bitrate = 1800Mbps
*.switch8.eth[27].bitrate = 1600Mbps
*.switch8.eth[28].bitrate = 1800Mbps
*.switch8.eth[29].bitrate = 1600Mbps
*.host9.eth[0].bitrate = 1000Mbps
*.switch9.eth[0].bitrate = 1000Mbps
*.switch9.eth[1].bitrate = 1700Mbps
*.switch9.eth[2].bitrate = 1600Mbps
*.switch9.eth[3].bitrate = 1200Mbps
*.switch9.eth[4].bitrate = 1200Mbps
*.switch9.eth[5].bitrate = 1500Mbps
*.switch9.eth[6].bitrate = 1600Mbps
*.switch9.eth[7].bitrate = 1300Mbps
*.switch9.eth[8].bitrate = 2100Mbps
*.switch9.eth[9].bitrate = 1600Mbps
*.switch9.eth[10].bitrate = 2300Mbps
*.switch9.eth[11].bitrate = 1800Mbps
*.switch9.eth[12].bitrate = 2200Mbps
*.switch9.eth[13].bitrate = 2300Mbps
*.switch9.eth[14].bitrate = 1600Mbps
*.switch9.eth[15].bitrate = 1900Mbps
*.switch9.eth[16].bitrate = 1900Mbps
*.switch9.eth[17].bitrate = 1900Mbps
*.switch9.eth[18].bitrate = 2000Mbps
*.switch9.eth[19].bitrate = 1200Mbps
*.switch9.eth[20].bitrate = 1200Mbps
*.switch9.eth[21].bitrate = 1700Mbps
*.switch9.eth[22].bitrate = 2000Mbps
*.host10.eth[0].bitrate = 1000Mbps
*.switch10.eth[0].bitrate = 1000Mbps
*.switch10.eth[1].bitrate = 2300Mbps
*.switch10.eth[2].bitrate = 1600Mbps
*.switch10.eth[3].bitrate = 1200Mbps
*.switch10.eth[4].bitrate = 1300Mbps
*.switch10.eth[5].bitrate = 2300Mbps
*.switch10.eth[6].bitrate = 1800Mbps
*.switch10.eth[7].bitrate = 1300Mbps
*.switch10.eth[8].bitrate = 1700Mbps
*.switch10.eth[9].bitrate = 2400Mbps
*.switch10.eth[10].bitrate = 1400Mbps
*.host11.eth[0].bitrate = 1000Mbps
*.switch11.eth[0].bitrate = 1000Mbps
*.switch11.eth[1].bitrate = 2100Mbps
*.switch11.eth[2].bitrate = 2400Mbps
*.switch11.eth[3].bitrate = 2200Mbps
*.switch11.eth[4].bitrate = 1800Mbps
*.switch11.eth[5].bitrate = 1400Mbps
*.switch11.eth[6].bitrate = 1800Mbps
*.switch11.eth[7].bitrate = 1500Mbps
*.switch11.eth[8].bitrate = 2000Mbps
*.switch11.eth[9].bitrate = 1400Mbps
*.switch11.eth[10].bitrate = 1300Mbps
*.switch11.eth[11].bitrate = 1800Mbps
*.switch11.eth[12].bitrate = 1800Mbps
*.switch11.eth[13].bitrate = 1300Mbps
*.switch11.eth[14].bitrate = 2100Mbps
*.switch11.eth[15].bitrate = 1500Mbps
*.switch11.eth[16].bitrate = 2000Mbps
*.switch11.eth[17].bitrate = 1800Mbps
*.switch11.eth[18].bitrate = 2000Mbps
*.switch11.eth[19].bitrate = 1400Mbps
*.switch11.eth[20].bitrate = 1800Mbps
*.switch11.eth[21].bitrate = 1600Mbps
*.switch11.eth[22].bitrate = 1200Mbps
*.switch11.eth[23].bitrate = 2100Mbps
*.host12.eth[0].bitrate = 1000Mbps
*.switch12.eth[0].bitrate = 1000Mbps
*.switch12.eth[1].bitrate = 1600Mbps
*.switch12.eth[2].bitrate = 2000Mbps
*.switch12.eth[3].bitrate = 1500Mbps
*.switch12.eth[4].bitrate = 1800Mbps
*.switch12.eth[5].bitrate = 2100Mbps
*.switch12.eth[6].bitrate = 1600Mbps
*.switch12.eth[7].bitrate = 1500Mbps
*.switch12.eth[8].bitrate = 2200Mbps
*.switch12.eth[9].bitrate = 1300Mbps
*.switch12.eth[10].bitrate = 1400Mbps
*.switch12.eth[11].bitrate = 1200Mbps
*.switch12.eth[12].bitrate = 1300Mbps
*.switch12.eth[13].bitrate = 1900Mbps
*.switch12.eth[14].bitrate = 1700Mbps
*.switch12.eth[15].bitrate = 1600Mbps
*.switch12.eth[16].bitrate = 1500Mbps
*.switch12.eth[17].bitrate = 1500Mbps
*.switch12.eth[18].bitrate = 1900Mbps
*.switch12.eth[19].bitrate = 2100Mbps
*.switch12.eth[20].bitrate = 1200Mbps
*.switch12.eth[21].bitrate = 1800Mbps
*.switch12.eth[22].bitrate = 1400Mbps
*.host13.eth[0].bitrate = 1000Mbps
*.switch13.eth[0].bitrate = 1000Mbps
*.switch13.eth[1].bitrate = 2300Mbps
*.switch13.eth[2].bitrate = 2000Mbps
*.switch13.eth[3].bitrate = 1400Mbps
*.switch13.eth[4].bitrate = 1800Mbps
*.switch13.eth[5].bitrate = 1500Mbps
*.switch13.eth[6].bitrate = 2200Mbps
*.switch13.eth[7].bitrate = 1800Mbps
*.switch13.eth[8].bitrate = 1500Mbps
*.switch13.eth[9].bitrate = 1500Mbps
*.switch13.eth[10].bitrate = 1200Mbps
*.switch13.eth[11].bitrate = 2100Mbps
*.switch13.eth[12].bitrate = 2000Mbps
*.switch13.eth[13].bitrate = 1600Mbps
*.switch13.eth[14].bitrate = 2400Mbps
*.switch13.eth[15].bitrate = 1200Mbps
*.switch13.eth[16].bitrate = 1300Mbps
*.switch13.eth[17].bitrate = 1400Mbps
*.host14.eth[0].bitrate = 1000Mbps
*.switch14.eth[0].bitrate = 1000Mbps
*.switch14.eth[1].bitrate = 2000Mbps
*.switch14.eth[2].bitrate = 1500Mbps
*.switch14.eth[3].bitrate = 2100Mbps
*.switch14.eth[4].bitrate = 2300Mbps
*.switch14.eth[5].bitrate = 1700Mbps
*.switch14.eth[6].bitrate = 1900Mbps
*.switch14.eth[7].bitrate = 2300Mbps
*.switch14.eth[8].bitrate = 1600Mbps
*.switch14.eth[9].bitrate = 1700Mbps
*.switch14.eth[10].bitrate = 1900Mbps
*.switch14.eth[11].bitrate = 2400Mbps
*.switch14.eth[12].bitrate = 2300Mbps
*.switch14.eth[13].bitrate = 2400Mbps
*.switch14.eth[14].bitrate = 1200Mbps
*.switch14.eth[15].bitrate = 1200Mbps
*.switch14.eth[16].bitrate = 1900Mbps
*.switch14.eth[17].bitrate = 1800Mbps
*.switch14.eth[18].bitrate = 2300Mbps
*.switch14.eth[19].bitrate = 1800Mbps
*.switch14.eth[20].bitrate = 2100Mbps
*.switch14.eth[21].bitrate = 1200Mbps
*.switch14.eth[22].bitrate = 2300Mbps
*.switch14.eth[23].bitrate = 2000Mbps
*.host15.eth[0].bitrate = 1000Mbps
*.switch15.eth[0].bitrate = 1000Mbps
*.switch15.eth[1].bitrate = 1900Mbps
*.switch15.eth[2].bitrate = 2200Mbps
*.switch15.eth[3].bitrate = 1900Mbps
*.switch15.eth[4].bitrate = 1400Mbps
*.switch15.eth[5].bitrate = 1600Mbps
*.switch15.eth[6].bitrate = 2000Mbps
*.switch15.eth[7].bitrate = 1500Mbps
*.switch15.eth[8].bitrate = 1900Mbps
*.switch15.eth[9].bitrate = 2000Mbps
*.switch15.eth[10].bitrate = 1200Mbps
*.switch15.eth[11].bitrate = 1300Mbps
*.switch15.eth[12].bitrate = 2400Mbps
*.switch15.eth[13].bitrate = 1600Mbps
*.switch15.eth[14].bitrate = 1600Mbps
*.switch15.eth[15].bitrate = 1800Mbps
*.host16.eth[0].bitrate = 1000Mbps
*.switch16.eth[0].bitrate = 1000Mbps
*.switch16.eth[1].bitrate = 1500Mbps
*.switch16.eth[2].bitrate = 2400Mbps
*.switch16.eth[3].bitrate = 1200Mbps
*.switch16.eth[4].bitrate = 2200Mbps
*.switch16.eth[5].bitrate = 1800Mbps
*.switch16.eth[6].bitrate = 1800Mbps
*.switch16.eth[7].bitrate = 1900Mbps
*.switch16.eth[8].bitrate = 1600Mbps
*.switch16.eth[9].bitrate = 1800Mbps
*.switch16.eth[10].bitrate = 1400Mbps
*.switch16.eth[11].bitrate = 2200Mbps
*.switch16.eth[12].bitrate = 1800Mbps
*.switch16.eth[13].bitrate = 2100Mbps
*.switch16.eth[14].bitrate = 2100Mbps
*.switch16.eth[15].bitrate = 1700Mbps
*.switch16.eth[16].bitrate = 2300Mbps
*.switch16.eth[17].bitrate = 1900Mbps
*.host17.eth[0].bitrate = 1000Mbps
*.switch17.eth[0].bitrate = 1000Mbps
*.switch17.eth[1].bitrate = 1200Mbps
*.switch17.eth[2].bitrate = 2300Mbps
*.switch17.eth[3].bitrate = 2000Mbps
*.switch17.eth[4].bitrate = 2100Mbps
*.switch17.eth[5].bitrate = 2400Mbps
*.switch17.eth[6].bitrate = 1400Mbps
*.switch17.eth[7].bitrate = 1500Mbps
*.switch17.eth[8].bitrate = 1400Mbps
*.switch17.eth[9].bitrate = 2200Mbps
*.switch17.eth[10].bitrate = 1600Mbps
*.switch17.eth[11].bitrate = 1200Mbps
*.switch17.eth[12].bitrate = 1400Mbps
*.switch17.eth[13].bitrate = 1200Mbps
*.switch17.eth[14].bitrate = 1600Mbps
*.switch17.eth[15].bitrate = 2400Mbps
*.switch17.eth[16].bitrate = 1700Mbps
*.host18.eth[0].bitrate = 1000Mbps
*.switch18.eth[0].bitrate = 1000Mbps
*.switch18.eth[1].bitrate = 2100Mbps
*.switch18.eth[2].bitrate = 1500Mbps
*.switch18.eth[3].bitrate = 2000Mbps
*.switch18.eth[4].bitrate = 1400Mbps
*.switch18.eth[5].bitrate = 1900Mbps
*.switch18.eth[6].bitrate = 1900Mbps
*.switch18.eth[7].bitrate = 1400Mbps
*.switch18.eth[8].bitrate = 1200Mbps
*.switch18.eth[9].bitrate = 2300Mbps
*.switch18.eth[10].bitrate = 2100Mbps
*.switch18.eth[11].bitrate = 2200Mbps
*.switch18.eth[12].bitrate = 1800Mbps
*.switch18.eth[13].bitrate = 1700Mbps
*.switch18.eth[14].bitrate = 1400Mbps
*.switch18.eth[15].bitrate = 1800Mbps
*.switch18.eth[16].bitrate = 1700Mbps
*.switch18.eth[17].bitrate = 1400Mbps
*.switch18.eth[18].bitrate = 2300Mbps
*.switch18.eth[19].bitrate = 1600Mbps
*.switch18.eth[20].bitrate = 2300Mbps
*.switch18.eth[21].bitrate = 1700Mbps
*.switch18.eth[22].bitrate = 1900Mbps
*.host19.eth[0].bitrate = 1000Mbps
*.switch19.eth[0].bitrate = 1000Mbps
*.switch19.eth[1].bitrate = 1800Mbps
*.switch19.eth[2].bitrate = 1500Mbps
*.switch19.eth[3].bitrate = 2400Mbps
*.switch19.eth[4].bitrate = 1200Mbps
*.switch19.eth[5].bitrate = 1900Mbps
*.switch19.eth[6].bitrate = 1800Mbps
*.switch19.eth[7].bitrate = 1800Mbps
*.switch19.eth[8].bitrate = 1800Mbps
*.switch19.eth[9].bitrate = 2400Mbps
*.switch19.eth[10].bitrate = 1700Mbps
*.switch19.eth[11].bitrate = 2400Mbps
*.switch19.eth[12].bitrate = 1900Mbps
*.switch19.eth[13].bitrate = 1500Mbps
*.switch19.eth[14].bitrate = 2300Mbps
*.switch19.eth[15].bitrate = 2100Mbps
*.switch19.eth[16].bitrate = 1800Mbps
*.switch19.eth[17].bitrate = 1400Mbps
*.switch19.eth[18].bitrate = 1800Mbps
*.switch19.eth[19].bitrate = 1600Mbps
*.switch19.eth[20].bitrate = 2000Mbps
*.switch19.eth[21].bitrate = 1400Mbps
*.switch19.eth[22].bitrate = 2000Mbps
*.switch19.eth[23].bitrate = 1800Mbps
*.switch19.eth[24].bitrate = 1900Mbps
*.host0.numApps = 1
*.host0.app[0].typename = "UdpSourceApp"
*.host0.app[0].io.destAddress = "host10"
*.host0.app[0].source.packetNameFormat = "%M-%m-%c"
*.host0.app[0].source.displayStringTextFormat = "sent %p pk (%l)"
*.host0.app[0].source.packetLength = 14B
*.host0.app[0].source.productionInterval = 1ms
*.host0.app[0].display-name = "type1_4"
*.host0.app[0].io.destPort = 1001
*.host1.numApps = 8
*.host1.app[0].typename = "UdpSinkApp"
*.host1.app[0].io.localPort = 1000
*.host1.app[1].typename = "UdpSinkApp"
*.host1.app[1].io.localPort = 1001
*.host1.app[2].typename = "UdpSinkApp"
*.host1.app[2].io.localPort = 1002
*.host1.app[3].typename = "UdpBasicApp"
*.host1.app[3].destAddresses = "host17"
*.host1.app[3].source.packetNameFormat = "%M-%m-%c"
*.host1.app[3].source.displayStringTextFormat = "sent %p pk (%l)"
*.host1.app[3].messageLength = 13B
*.host1.app[3].sendInterval = 1ms
*.host1.app[3].startTime = 200us
*.host1.app[3].stopTime = 1600us
*.host1.app[3].display-name = "type2_7"
*.host1.app[3].destPort = 1000
*.host1.app[4].typename = "UdpBasicApp"
*.host1.app[4].destAddresses = "host17"
*.host1.app[4].source.packetNameFormat = "%M-%m-%c"
*.host1.app[4].source.displayStringTextFormat = "sent %p pk (%l)"
*.host1.app[4].messageLength = 13B
*.host1.app[4].sendInterval = 1ms
*.host1.app[4].startTime = 2000us
*.host1.app[4].stopTime = 3700us
*.host1.app[4].display-name = "type2_7"
*.host1.app[4].destPort = 1000
*.host1.app[5].typename = "UdpBasicApp"
*.host1.app[5].destAddresses = "host17"
*.host1.app[5].source.packetNameFormat = "%M-%m-%c"
*.host1.app[5].source.displayStringTextFormat = "sent %p pk (%l)"
*.host1.app[5].messageLength = 13B
*.host1.app[5].sendInterval = 1ms
*.host1.app[5].startTime = 3900us
*.host1.app[5].stopTime = 5400us
*.host1.app[5].display-name = "type2_7"
*.host1.app[5].destPort = 1000
*.host1.app[6].typename = "UdpBasicApp"
*.host1.app[6].destAddresses = "host17"
*.host1.app[6].source.packetNameFormat = "%M-%m-%c"
*.host1.app[6].source.displayStringTextFormat = "sent %p pk (%l)"
*.host1.app[6].messageLength = 13B
*.host1.app[6].sendInterval = 1ms
*.host1.app[6].startTime = 5600us
*.host1.app[6].stopTime = 8900us
*.host1.app[6].display-name = "type2_7"
*.host1.app[6].destPort = 1000
*.host1.app[7].typename = "UdpBasicApp"
*.host1.app[7].destAddresses = "host17"
*.host1.app[7].source.packetNameFormat = "%M-%m-%c"
*.host1.app[7].source.displayStringTextFormat = "sent %p pk (%l)"
*.host1.app[7].messageLength = 13B
*.host1.app[7].sendInterval = 1ms
*.host1.app[7].startTime = 9200us
*.host1.app[7].stopTime = 9400us
*.host1.app[7].display-name = "type2_7"
*.host1.app[7].destPort = 1000
*.host2.numApps = 0
*.host3.numApps = 0
*.host4.numApps = 5
*.host4.app[0].typename = "UdpBasicApp"
*.host4.app[0].destAddresses = "host5"
*.host4.app[0].source.packetNameFormat = "%M-%m-%c"
*.host4.app[0].source.displayStringTextFormat = "sent %p pk (%l)"
*.host4.app[0].messageLength = 16B
*.host4.app[0].sendInterval = 1ms
*.host4.app[0].startTime = 2400us
*.host4.app[0].stopTime = 2600us
*.host4.app[0].display-name = "type2_8"
*.host4.app[0].destPort = 1000
*.host4.app[1].typename = "UdpBasicApp"
*.host4.app[1].destAddresses = "host5"
*.host4.app[1].source.packetNameFormat = "%M-%m-%c"
*.host4.app[1].source.displayStringTextFormat = "sent %p pk (%l)"
*.host4.app[1].messageLength = 16B
*.host4.app[1].sendInterval = 1ms
*.host4.app[1].startTime = 6500us
*.host4.app[1].stopTime = 7200us
*.host4.app[1].display-name = "type2_8"
*.host4.app[1].destPort = 1000
*.host4.app[2].typename = "UdpBasicApp"
*.host4.app[2].destAddresses = "host5"
*.host4.app[2].source.packetNameFormat = "%M-%m-%c"
*.host4.app[2].source.displayStringTextFormat = "sent %p pk (%l)"
*.host4.app[2].messageLength = 16B
*.host4.app[2].sendInterval = 1ms
*.host4.app[2].startTime = 7600us
*.host4.app[2].stopTime = 8100us
*.host4.app[2].display-name = "type2_8"
*.host4.app[2].destPort = 1000
*.host4.app[3].typename = "UdpBasicApp"
*.host4.app[3].destAddresses = "host5"
*.host4.app[3].source.packetNameFormat = "%M-%m-%c"
*.host4.app[3].source.displayStringTextFormat = "sent %p pk (%l)"
*.host4.app[3].messageLength = 16B
*.host4.app[3].sendInterval = 1ms
*.host4.app[3].startTime = 9500us
*.host4.app[3].stopTime = 9600us
*.host4.app[3].display-name = "type2_8"
*.host4.app[3].destPort = 1000
*.host4.app[4].typename = "UdpSinkApp"
*.host4.app[4].io.localPort = 1000
*.host5.numApps = 9
*.host5.app[0].typename = "UdpSinkApp"
*.host5.app[0].io.localPort = 1000
*.host5.app[1].typename = "UdpBasicApp"
*.host5.app[1].destAddresses = "host11"
*.host5.app[1].source.packetNameFormat = "%M-%m-%c"
*.host5.app[1].source.displayStringTextFormat = "sent %p pk (%l)"
*.host5.app[1].messageLength = 18B
*.host5.app[1].sendInterval = 1ms
*.host5.app[1].startTime = 500us
*.host5.app[1].stopTime = 600us
*.host5.app[1].display-name = "type2_11"
*.host5.app[1].destPort = 1000
*.host5.app[2].typename = "UdpBasicApp"
*.host5.app[2].destAddresses = "host11"
*.host5.app[2].source.packetNameFormat = "%M-%m-%c"
*.host5.app[2].source.displayStringTextFormat = "sent %p pk (%l)"
*.host5.app[2].messageLength = 18B
*.host5.app[2].sendInterval = 1ms
*.host5.app[2].startTime = 700us
*.host5.app[2].stopTime = 800us
*.host5.app[2].display-name = "type2_11"
*.host5.app[2].destPort = 1000
*.host5.app[3].typename = "UdpBasicApp"
*.host5.app[3].destAddresses = "host11"
*.host5.app[3].source.packetNameFormat = "%M-%m-%c"
*.host5.app[3].source.displayStringTextFormat = "sent %p pk (%l)"
*.host5.app[3].messageLength = 18B
*.host5.app[3].sendInterval = 1ms
*.host5.app[3].startTime = 2400us
*.host5.app[3].stopTime = 3000us
*.host5.app[3].display-name = "type2_11"
*.host5.app[3].destPort = 1000
*.host5.app[4].typename = "UdpBasicApp"
*.host5.app[4].destAddresses = "host11"
*.host5.app[4].source.packetNameFormat = "%M-%m-%c"
*.host5.app[4].source.displayStringTextFormat = "sent %p pk (%l)"
*.host5.app[4].messageLength = 18B
*.host5.app[4].sendInterval = 1ms
*.host5.app[4].startTime = 3600us
*.host5.app[4].stopTime = 6100us
*.host5.app[4].display-name = "type2_11"
*.host5.app[4].destPort = 1000
*.host5.app[5].typename = "UdpBasicApp"
*.host5.app[5].destAddresses = "host11"
*.host5.app[5].source.packetNameFormat = "%M-%m-%c"
*.host5.app[5].source.displayStringTextFormat = "sent %p pk (%l)"
*.host5.app[5].messageLength = 18B
*.host5.app[5].sendInterval = 1ms
*.host5.app[5].startTime = 6200us
*.host5.app[5].stopTime = 6400us
*.host5.app[5].display-name = "type2_11"
*.host5.app[5].destPort = 1000
*.host5.app[6].typename = "UdpBasicApp"
*.host5.app[6].destAddresses = "host11"
*.host5.app[6].source.packetNameFormat = "%M-%m-%c"
*.host5.app[6].source.displayStringTextFormat = "sent %p pk (%l)"
*.host5.app[6].messageLength = 18B
*.host5.app[6].sendInterval = 1ms
*.host5.app[6].startTime = 7000us
*.host5.app[6].stopTime = 7500us
*.host5.app[6].display-name = "type2_11"
*.host5.app[6].destPort = 1000
*.host5.app[7].typename = "UdpBasicApp"
*.host5.app[7].destAddresses = "host11"
*.host5.app[7].source.packetNameFormat = "%M-%m-%c"
*.host5.app[7].source.displayStringTextFormat = "sent %p pk (%l)"
*.host5.app[7].messageLength = 18B
*.host5.app[7].sendInterval = 1ms
*.host5.app[7].startTime = 7800us
*.host5.app[7].stopTime = 8200us
*.host5.app[7].display-name = "type2_11"
*.host5.app[7].destPort = 1000
*.host5.app[8].typename = "UdpBasicApp"
*.host5.app[8].destAddresses = "host11"
*.host5.app[8].source.packetNameFormat = "%M-%m-%c"
*.host5.app[8].source.displayStringTextFormat = "sent %p pk (%l)"
*.host5.app[8].messageLength = 18B
*.host5.app[8].sendInterval = 1ms
*.host5.app[8].startTime = 8300us
*.host5.app[8].stopTime = 9700us
*.host5.app[8].display-name = "type2_11"
*.host5.app[8].destPort = 1000
*.host6.numApps = 5
*.host6.app[0].typename = "UdpBasicApp"
*.host6.app[0].destAddresses = "host1"
*.host6.app[0].source.packetNameFormat = "%M-%m-%c"
*.host6.app[0].source.displayStringTextFormat = "sent %p pk (%l)"
*.host6.app[0].messageLength = 18B
*.host6.app[0].sendInterval = 1ms
*.host6.app[0].startTime = 100us
*.host6.app[0].stopTime = 500us
*.host6.app[0].display-name = "type2_6"
*.host6.app[0].destPort = 1002
*.host6.app[1].typename = "UdpBasicApp"
*.host6.app[1].destAddresses = "host1"
*.host6.app[1].source.packetNameFormat = "%M-%m-%c"
*.host6.app[1].source.displayStringTextFormat = "sent %p pk (%l)"
*.host6.app[1].messageLength = 18B
*.host6.app[1].sendInterval = 1ms
*.host6.app[1].startTime = 600us
*.host6.app[1].stopTime = 1400us
*.host6.app[1].display-name = "type2_6"
*.host6.app[1].destPort = 1002
*.host6.app[2].typename = "UdpBasicApp"
*.host6.app[2].destAddresses = "host1"
*.host6.app[2].source.packetNameFormat = "%M-%m-%c"
*.host6.app[2].source.displayStringTextFormat = "sent %p pk (%l)"
*.host6.app[2].messageLength = 18B
*.host6.app[2].sendInterval = 1ms
*.host6.app[2].startTime = 4400us
*.host6.app[2].stopTime = 4900us
*.host6.app[2].display-name = "type2_6"
*.host6.app[2].destPort = 1002
*.host6.app[3].typename = "UdpBasicApp"
*.host6.app[3].destAddresses = "host1"
*.host6.app[3].source.packetNameFormat = "%M-%m-%c"
*.host6.app[3].source.displayStringTextFormat = "sent %p pk (%l)"
*.host6.app[3].messageLength = 18B
*.host6.app[3].sendInterval = 1ms
*.host6.app[3].startTime = 5400us
*.host6.app[3].stopTime = 8900us
*.host6.app[3].display-name = "type2_6"
*.host6.app[3].destPort = 1002
*.host6.app[4].typename = "UdpBasicApp"
*.host6.app[4].destAddresses = "host1"
*.host6.app[4].source.packetNameFormat = "%M-%m-%c"
*.host6.app[4].source.displayStringTextFormat = "sent %p pk (%l)"
*.host6.app[4].messageLength = 18B
*.host6.app[4].sendInterval = 1ms
*.host6.app[4].startTime = 9500us
*.host6.app[4].stopTime = 10000us
*.host6.app[4].display-name = "type2_6"
*.host6.app[4].destPort = 1002
*.host7.numApps = 1
*.host7.app[0].typename = "UdpSourceApp"
*.host7.app[0].io.destAddress = "host19"
*.host7.app[0].source.packetNameFormat = "%M-%m-%c"
*.host7.app[0].source.displayStringTextFormat = "sent %p pk (%l)"
*.host7.app[0].source.packetLength = 17B
*.host7.app[0].source.productionInterval = 1ms
*.host7.app[0].display-name = "type1_2"
*.host7.app[0].io.destPort = 1001
*.host8.numApps = 2
*.host8.app[0].typename = "UdpSourceApp"
*.host8.app[0].io.destAddress = "host19"
*.host8.app[0].source.packetNameFormat = "%M-%m-%c"
*.host8.app[0].source.displayStringTextFormat = "sent %p pk (%l)"
*.host8.app[0].source.packetLength = 14B
*.host8.app[0].source.productionInterval = 1ms
*.host8.app[0].display-name = "type1_0"
*.host8.app[0].io.destPort = 1000
*.host8.app[1].typename = "UdpSinkApp"
*.host8.app[1].io.localPort = 1000
*.host9.numApps = 13
*.host9.app[0].typename = "UdpSinkApp"
*.host9.app[0].io.localPort = 1000
*.host9.app[1].typename = "UdpBasicApp"
*.host9.app[1].destAddresses = "host8"
*.host9.app[1].source.packetNameFormat = "%M-%m-%c"
*.host9.app[1].source.displayStringTextFormat = "sent %p pk (%l)"
*.host9.app[1].messageLength = 19B
*.host9.app[1].sendInterval = 1ms
*.host9.app[1].startTime = 700us
*.host9.app[1].stopTime = 1200us
*.host9.app[1].display-name = "type2_9"
*.host9.app[1].destPort = 1000
*.host9.app[2].typename = "UdpBasicApp"
*.host9.app[2].destAddresses = "host8"
*.host9.app[2].source.packetNameFormat = "%M-%m-%c"
*.host9.app[2].source.displayStringTextFormat = "sent %p pk (%l)"
*.host9.app[2].messageLength = 19B
*.host9.app[2].sendInterval = 1ms
*.host9.app[2].startTime = 1800us
*.host9.app[2].stopTime = 1900us
*.host9.app[2].display-name = "type2_9"
*.host9.app[2].destPort = 1000
*.host9.app[3].typename = "UdpBasicApp"
*.host9.app[3].destAddresses = "host8"
*.host9.app[3].source.packetNameFormat = "%M-%m-%c"
*.host9.app[3].source.displayStringTextFormat = "sent %p pk (%l)"
*.host9.app[3].messageLength = 19B
*.host9.app[3].sendInterval = 1ms
*.host9.app[3].startTime = 2500us
*.host9.app[3].stopTime = 2800us
*.host9.app[3].display-name = "type2_9"
*.host9.app[3].destPort = 1000
*.host9.app[4].typename = "UdpBasicApp"
*.host9.app[4].destAddresses = "host8"
*.host9.app[4].source.packetNameFormat = "%M-%m-%c"
*.host9.app[4].source.displayStringTextFormat = "sent %p pk (%l)"
*.host9.app[4].messageLength = 19B
*.host9.app[4].sendInterval = 1ms
*.host9.app[4].startTime = 3500us
*.host9.app[4].stopTime = 5200us
*.host9.app[4].display-name = "type2_9"
*.host9.app[4].destPort = 1000
*.host9.app[5].typename = "UdpBasicApp"
*.host9.app[5].destAddresses = "host8"
*.host9.app[5].source.packetNameFormat = "%M-%m-%c"
*.host9.app[5].source.displayStringTextFormat = "sent %p pk (%l)"
*.host9.app[5].messageLength = 19B
*.host9.app[5].sendInterval = 1ms
*.host9.app[5].startTime = 6100us
*.host9.app[5].stopTime = 7300us
*.host9.app[5].display-name = "type2_9"
*.host9.app[5].destPort = 1000
*.host9.app[6].typename = "UdpBasicApp"
*.host9.app[6].destAddresses = "host8"
*.host9.app[6].source.packetNameFormat = "%M-%m-%c"
*.host9.app[6].source.displayStringTextFormat = "sent %p pk (%l)"
*.host9.app[6].messageLength = 19B
*.host9.app[6].sendInterval = 1ms
*.host9.app[6].startTime = 8200us
*.host9.app[6].stopTime = 10000us
*.host9.app[6].display-name = "type2_9"
*.host9.app[6].destPort = 1000
*.host9.app[7].typename = "UdpBasicApp"
*.host9.app[7].destAddresses = "host4"
*.host9.app[7].source.packetNameFormat = "%M-%m-%c"
*.host9.app[7].source.displayStringTextFormat = "sent %p pk (%l)"
*.host9.app[7].messageLength = 20B
*.host9.app[7].sendInterval = 1ms
*.host9.app[7].startTime = 1000us
*.host9.app[7].stopTime = 2600us
*.host9.app[7].display-name = "type2_10"
*.host9.app[7].destPort = 1000
*.host9.app[8].typename = "UdpBasicApp"
*.host9.app[8].destAddresses = "host4"
*.host9.app[8].source.packetNameFormat = "%M-%m-%c"
*.host9.app[8].source.displayStringTextFormat = "sent %p pk (%l)"
*.host9.app[8].messageLength = 20B
*.host9.app[8].sendInterval = 1ms
*.host9.app[8].startTime = 3600us
*.host9.app[8].stopTime = 3700us
*.host9.app[8].display-name = "type2_10"
*.host9.app[8].destPort = 1000
*.host9.app[9].typename = "UdpBasicApp"
*.host9.app[9].destAddresses = "host4"
*.host9.app[9].source.packetNameFormat = "%M-%m-%c"