
[General]
network = TSN_multipath
sim-time-limit = 10ms

# disable automatic MAC forwarding table configuration
*.macForwardingTableConfigurator.typename = ""

# enable frame replication and elimination
*.*.hasStreamRedundancy = true

# enable stream policing in layer 2
*.*.bridging.streamRelay.typename = "StreamRelayLayer"
*.*.bridging.streamCoder.typename = "StreamCoderLayer"

# enable automatic stream redundancy configurator
*.streamRedundancyConfigurator.typename = "StreamRedundancyConfigurator"

*.host0.eth[0].bitrate = 100Mbps
*.switch0.eth[0].bitrate = 100Mbps
*.switch0.eth[1].bitrate = 240Mbps
*.switch0.eth[2].bitrate = 180Mbps
*.switch0.eth[3].bitrate = 170Mbps
*.switch0.eth[4].bitrate = 120Mbps
*.switch0.eth[5].bitrate = 190Mbps
*.host1.eth[0].bitrate = 100Mbps
*.switch1.eth[0].bitrate = 100Mbps
*.switch1.eth[1].bitrate = 180Mbps
*.switch1.eth[2].bitrate = 130Mbps
*.switch1.eth[3].bitrate = 130Mbps
*.switch1.eth[4].bitrate = 120Mbps
*.switch1.eth[5].bitrate = 220Mbps
*.switch1.eth[6].bitrate = 180Mbps
*.switch1.eth[7].bitrate = 150Mbps
*.switch1.eth[8].bitrate = 150Mbps
*.switch1.eth[9].bitrate = 240Mbps
*.switch1.eth[10].bitrate = 160Mbps
*.switch1.eth[11].bitrate = 240Mbps
*.host2.eth[0].bitrate = 100Mbps
*.switch2.eth[0].bitrate = 100Mbps
*.switch2.eth[1].bitrate = 240Mbps
*.switch2.eth[2].bitrate = 180Mbps
*.switch2.eth[3].bitrate = 120Mbps
*.switch2.eth[4].bitrate = 210Mbps
*.switch2.eth[5].bitrate = 230Mbps
*.switch2.eth[6].bitrate = 230Mbps
*.switch2.eth[7].bitrate = 140Mbps
*.switch2.eth[8].bitrate = 230Mbps
*.switch2.eth[9].bitrate = 180Mbps
*.host3.eth[0].bitrate = 100Mbps
*.switch3.eth[0].bitrate = 100Mbps
*.switch3.eth[1].bitrate = 130Mbps
*.switch3.eth[2].bitrate = 230Mbps
*.switch3.eth[3].bitrate = 130Mbps
*.switch3.eth[4].bitrate = 140Mbps
*.switch3.eth[5].bitrate = 170Mbps
*.switch3.eth[6].bitrate = 150Mbps
*.switch3.eth[7].bitrate = 230Mbps
*.switch3.eth[8].bitrate = 190Mbps
*.switch3.eth[9].bitrate = 230Mbps
*.switch3.eth[10].bitrate = 120Mbps
*.switch3.eth[11].bitrate = 130Mbps
*.switch3.eth[12].bitrate = 120Mbps
*.switch3.eth[13].bitrate = 190Mbps
*.host4.eth[0].bitrate = 100Mbps
*.switch4.eth[0].bitrate = 100Mbps
*.switch4.eth[1].bitrate = 130Mbps
*.switch4.eth[2].bitrate = 180Mbps
*.switch4.eth[3].bitrate = 230Mbps
*.switch4.eth[4].bitrate = 160Mbps
*.switch4.eth[5].bitrate = 240Mbps
*.switch4.eth[6].bitrate = 180Mbps
*.switch4.eth[7].bitrate = 220Mbps
*.switch4.eth[8].bitrate = 230Mbps
*.switch4.eth[9].bitrate = 170Mbps
*.switch4.eth[10].bitrate = 230Mbps
*.switch4.eth[11].bitrate = 210Mbps
*.switch4.eth[12].bitrate = 210Mbps
*.host5.eth[0].bitrate = 100Mbps
*.switch5.eth[0].bitrate = 100Mbps
*.switch5.eth[1].bitrate = 120Mbps
*.switch5.eth[2].bitrate = 130Mbps
*.switch5.eth[3].bitrate = 190Mbps
*.switch5.eth[4].bitrate = 240Mbps
*.switch5.eth[5].bitrate = 160Mbps
*.switch5.eth[6].bitrate = 160Mbps
*.switch5.eth[7].bitrate = 170Mbps
*.switch5.eth[8].bitrate = 190Mbps
*.switch5.eth[9].bitrate = 170Mbps
*.host6.eth[0].bitrate = 100Mbps
*.switch6.eth[0].bitrate = 100Mbps
*.switch6.eth[1].bitrate = 220Mbps
*.switch6.eth[2].bitrate = 160Mbps
*.switch6.eth[3].bitrate = 150Mbps
*.switch6.eth[4].bitrate = 140Mbps
*.switch6.eth[5].bitrate = 230Mbps
*.switch6.eth[6].bitrate = 230Mbps
*.switch6.eth[7].bitrate = 170Mbps
*.switch6.eth[8].bitrate = 120Mbps
*.switch6.eth[9].bitrate = 140Mbps
*.switch6.eth[10].bitrate = 160Mbps
*.switch6.eth[11].bitrate = 220Mbps
*.switch6.eth[12].bitrate = 210Mbps
*.switch6.eth[13].bitrate = 150Mbps
*.switch6.eth[14].bitrate = 150Mbps
*.switch6.eth[15].bitrate = 200Mbps
*.switch6.eth[16].bitrate = 150Mbps
*.switch6.eth[17].bitrate = 200Mbps
*.switch6.eth[18].bitrate = 170Mbps
*.host7.eth[0].bitrate = 100Mbps
*.switch7.eth[0].bitrate = 100Mbps
*.switch7.eth[1].bitrate = 120Mbps
*.switch7.eth[2].bitrate = 170Mbps
*.switch7.eth[3].bitrate = 150Mbps
*.switch7.eth[4].bitrate = 150Mbps
*.switch7.eth[5].bitrate = 160Mbps
*.switch7.eth[6].bitrate = 180Mbps
*.switch7.eth[7].bitrate = 160Mbps
*.switch7.eth[8].bitrate = 220Mbps
*.switch7.eth[9].bitrate = 180Mbps
*.switch7.eth[10].bitrate = 230Mbps
*.switch7.eth[11].bitrate = 150Mbps
*.switch7.eth[12].bitrate = 130Mbps
*.switch7.eth[13].bitrate = 200Mbps
*.host8.eth[0].bitrate = 100Mbps
*.switch8.eth[0].bitrate = 100Mbps
*.switch8.eth[1].bitrate = 240Mbps
*.switch8.eth[2].bitrate = 140Mbps
*.switch8.eth[3].bitrate = 160Mbps
*.switch8.eth[4].bitrate = 180Mbps
*.switch8.eth[5].bitrate = 160Mbps
*.switch8.eth[6].bitrate = 240Mbps
*.switch8.eth[7].bitrate = 150Mbps
*.host9.eth[0].bitrate = 100Mbps
*.switch9.eth[0].bitrate = 100Mbps
*.switch9.eth[1].bitrate = 140Mbps
*.switch9.eth[2].bitrate = 160Mbps
*.switch9.eth[3].bitrate = 180Mbps
*.switch9.eth[4].bitrate = 160Mbps
*.switch9.eth[5].bitrate = 120Mbps
*.switch9.eth[6].bitrate = 210Mbps
*.switch9.eth[7].bitrate = 200Mbps
*.switch9.eth[8].bitrate = 230Mbps
*.switch9.eth[9].bitrate = 220Mbps
*.switch9.eth[10].bitrate = 210Mbps
*.switch9.eth[11].bitrate = 150Mbps
*.switch9.eth[12].bitrate = 240Mbps
*.switch9.eth[13].bitrate = 140Mbps
*.host10.eth[0].bitrate = 100Mbps
*.switch10.eth[0].bitrate = 100Mbps
*.switch10.eth[1].bitrate = 120Mbps
*.switch10.eth[2].bitrate = 180Mbps
*.switch10.eth[3].bitrate = 220Mbps
*.switch10.eth[4].bitrate = 120Mbps
*.switch10.eth[5].bitrate = 240Mbps
*.switch10.eth[6].bitrate = 130Mbps
*.switch10.eth[7].bitrate = 200Mbps
*.switch10.eth[8].bitrate = 240Mbps
*.host11.eth[0].bitrate = 100Mbps
*.switch11.eth[0].bitrate = 100Mbps
*.switch11.eth[1].bitrate = 220Mbps
*.switch11.eth[2].bitrate = 240Mbps
*.switch11.eth[3].bitrate = 210Mbps
*.switch11.eth[4].bitrate = 160Mbps
*.switch11.eth[5].bitrate = 240Mbps
*.switch11.eth[6].bitrate = 200Mbps
*.switch11.eth[7].bitrate = 240Mbps
*.switch11.eth[8].bitrate = 120Mbps
*.host12.eth[0].bitrate = 100Mbps
*.switch12.eth[0].bitrate = 100Mbps
*.switch12.eth[1].bitrate = 180Mbps
*.switch12.eth[2].bitrate = 170Mbps
*.switch12.eth[3].bitrate = 230Mbps
*.switch12.eth[4].bitrate = 160Mbps
*.switch12.eth[5].bitrate = 150Mbps
*.switch12.eth[6].bitrate = 220Mbps
*.switch12.eth[7].bitrate = 160Mbps
*.switch12.eth[8].bitrate = 120Mbps
*.switch12.eth[9].bitrate = 210Mbps
*.switch12.eth[10].bitrate = 190Mbps
*.switch12.eth[11].bitrate = 150Mbps
*.switch12.eth[12].bitrate = 240Mbps
*.switch12.eth[13].bitrate = 230Mbps
*.switch12.eth[14].bitrate = 190Mbps
*.host13.eth[0].bitrate = 100Mbps
*.switch13.eth[0].bitrate = 100Mbps
*.switch13.eth[1].bitrate = 150Mbps
*.switch13.eth[2].bitrate = 150Mbps
*.switch13.eth[3].bitrate = 220Mbps
*.switch13.eth[4].bitrate = 210Mbps
*.switch13.eth[5].bitrate = 230Mbps
*.switch13.eth[6].bitrate = 130Mbps
*.switch13.eth[7].bitrate = 180Mbps
*.host14.eth[0].bitrate = 100Mbps
*.switch14.eth[0].bitrate = 100Mbps
*.switch14.eth[1].bitrate = 210Mbps
*.switch14.eth[2].bitrate = 230Mbps
*.switch14.eth[3].bitrate = 170Mbps
*.switch14.eth[4].bitrate = 160Mbps
*.switch14.eth[5].bitrate = 200Mbps
*.switch14.eth[6].bitrate = 150Mbps
*.switch14.eth[7].bitrate = 240Mbps
*.switch14.eth[8].bitrate = 230Mbps
*.switch14.eth[9].bitrate = 190Mbps
*.switch14.eth[10].bitrate = 240Mbps
*.switch14.eth[11].bitrate = 180Mbps
*.switch14.eth[12].bitrate = 190Mbps
*.switch14.eth[13].bitrate = 170Mbps
*.switch14.eth[14].bitrate = 170Mbps
*.switch14.eth[15].bitrate = 200Mbps
*.switch14.eth[16].bitrate = 150Mbps
*.switch14.eth[17].bitrate = 140Mbps
*.switch14.eth[18].bitrate = 240Mbps
*.switch14.eth[19].bitrate = 120Mbps
*.switch14.eth[20].bitrate = 190Mbps
*.switch14.eth[21].bitrate = 180Mbps

# apps
            
*.host0.numApps = 5

*.host0.app[0].typename = "UdpSourceApp"
*.host0.app[0].io.destAddress = "host10"
*.host0.app[0].source.packetNameFormat = "%M-%m-%c"
*.host0.app[0].source.displayStringTextFormat = "sent %p pk (%l)"
*.host0.app[0].source.packetLength = 18B
*.host0.app[0].source.productionInterval = 100us
*.host0.app[0].display-name = "type1_1"
*.host0.app[0].io.destPort = 1000
                            
*.host0.app[1].typename = "UdpSourceApp"
*.host0.app[1].io.destAddress = "host6"
*.host0.app[1].source.packetNameFormat = "%M-%m-%c"
*.host0.app[1].source.displayStringTextFormat = "sent %p pk (%l)"
*.host0.app[1].source.packetLength = 19B
*.host0.app[1].source.productionInterval = 100us
*.host0.app[1].display-name = "type1_2"
*.host0.app[1].io.destPort = 1000
                            
*.host0.app[2].typename = "UdpSinkApp"
*.host0.app[2].io.localPort = 1000
                        
*.host0.app[3].typename = "UdpSinkApp"
*.host0.app[3].io.localPort = 1001
                        
*.host0.app[4].typename = "UdpSinkApp"
*.host0.app[4].io.localPort = 1002
                        
*.host1.numApps = 4

*.host1.app[0].typename = "UdpSourceApp"
*.host1.app[0].io.destAddress = "host14"
*.host1.app[0].source.packetNameFormat = "%M-%m-%c"
*.host1.app[0].source.displayStringTextFormat = "sent %p pk (%l)"
*.host1.app[0].source.packetLength = 15B
*.host1.app[0].source.productionInterval = 100us
*.host1.app[0].display-name = "type1_0"
*.host1.app[0].io.destPort = 1000
                            
*.host1.app[1].typename = "UdpSourceApp"
*.host1.app[1].io.destAddress = "host0"
*.host1.app[1].source.packetNameFormat = "%M-%m-%c"
*.host1.app[1].source.displayStringTextFormat = "sent %p pk (%l)"
*.host1.app[1].source.packetLength = 16B
*.host1.app[1].source.productionInterval = 100us
*.host1.app[1].display-name = "type1_3"
*.host1.app[1].io.destPort = 1000
                            
*.host1.app[2].typename = "UdpSinkApp"
*.host1.app[2].io.localPort = 1000
                        
*.host1.app[3].typename = "UdpSinkApp"
*.host1.app[3].io.localPort = 1001
                        
*.host2.numApps = 0

*.host3.numApps = 27

*.host3.app[0].typename = "UdpSinkApp"
*.host3.app[0].io.localPort = 1000
                        
*.host3.app[1].typename = "UdpBasicApp"
*.host3.app[1].destAddresses = "host5"
*.host3.app[1].source.packetNameFormat = "%M-%m-%c"
*.host3.app[1].source.displayStringTextFormat = "sent %p pk (%l)"
*.host3.app[1].messageLength = 18B
*.host3.app[1].sendInterval = 100us
*.host3.app[1].startTime = 500us
*.host3.app[1].stopTime = 3100us
*.host3.app[1].display-name = "type2_12"
*.host3.app[1].destPort = 1001
                            
*.host3.app[2].typename = "UdpBasicApp"
*.host3.app[2].destAddresses = "host5"
*.host3.app[2].source.packetNameFormat = "%M-%m-%c"
*.host3.app[2].source.displayStringTextFormat = "sent %p pk (%l)"
*.host3.app[2].messageLength = 18B
*.host3.app[2].sendInterval = 100us
*.host3.app[2].startTime = 3200us
*.host3.app[2].stopTime = 3300us
*.host3.app[2].display-name = "type2_12"
*.host3.app[2].destPort = 1001
                            
*.host3.app[3].typename = "UdpBasicApp"
*.host3.app[3].destAddresses = "host5"
*.host3.app[3].source.packetNameFormat = "%M-%m-%c"
*.host3.app[3].source.displayStringTextFormat = "sent %p pk (%l)"
*.host3.app[3].messageLength = 18B
*.host3.app[3].sendInterval = 100us
*.host3.app[3].startTime = 3500us
*.host3.app[3].stopTime = 4500us
*.host3.app[3].display-name = "type2_12"
*.host3.app[3].destPort = 1001
                            
*.host3.app[4].typename = "UdpBasicApp"
*.host3.app[4].destAddresses = "host5"
*.host3.app[4].source.packetNameFormat = "%M-%m-%c"
*.host3.app[4].source.displayStringTextFormat = "sent %p pk (%l)"
*.host3.app[4].messageLength = 18B
*.host3.app[4].sendInterval = 100us
*.host3.app[4].startTime = 5300us
*.host3.app[4].stopTime = 6900us
*.host3.app[4].display-name = "type2_12"
*.host3.app[4].destPort = 1001
                            
*.host3.app[5].typename = "UdpBasicApp"
*.host3.app[5].destAddresses = "host5"
*.host3.app[5].source.packetNameFormat = "%M-%m-%c"
*.host3.app[5].source.displayStringTextFormat = "sent %p pk (%l)"
*.host3.app[5].messageLength = 18B
*.host3.app[5].sendInterval = 100us
*.host3.app[5].startTime = 7200us
*.host3.app[5].stopTime = 7500us
*.host3.app[5].display-name = "type2_12"
*.host3.app[5].destPort = 1001
                            
*.host3.app[6].typename = "UdpBasicApp"
*.host3.app[6].destAddresses = "host5"
*.host3.app[6].source.packetNameFormat = "%M-%m-%c"
*.host3.app[6].source.displayStringTextFormat = "sent %p pk (%l)"
*.host3.app[6].messageLength = 18B
*.host3.app[6].sendInterval = 100us
*.host3.app[6].startTime = 7600us
*.host3.app[6].stopTime = 8100us
*.host3.app[6].display-name = "type2_12"
*.host3.app[6].destPort = 1001
                            
*.host3.app[7].typename = "UdpBasicApp"
*.host3.app[7].destAddresses = "host5"
*.host3.app[7].source.packetNameFormat = "%M-%m-%c"
*.host3.app[7].source.displayStringTextFormat = "sent %p pk (%l)"
*.host3.app[7].messageLength = 18B
*.host3.app[7].sendInterval = 100us
*.host3.app[7].startTime = 8600us
*.host3.app[7].stopTime = 9600us
*.host3.app[7].display-name = "type2_12"
*.host3.app[7].destPort = 1001
                            
*.host3.app[8].typename = "UdpBasicApp"
*.host3.app[8].destAddresses = "host14"
*.host3.app[8].source.packetNameFormat = "%M-%m-%c"
*.host3.app[8].source.displayStringTextFormat = "sent %p pk (%l)"
*.host3.app[8].messageLength = 19B
*.host3.app[8].sendInterval = 100us
*.host3.app[8].startTime = 100us
*.host3.app[8].stopTime = 300us
*.host3.app[8].display-name = "type2_14"
*.host3.app[8].destPort = 1001
                            
*.host3.app[9].typename = "UdpBasicApp"
*.host3.app[9].destAddresses = "host14"
*.host3.app[9].source.packetNameFormat = "%M-%m-%c"
*.host3.app[9].source.displayStringTextFormat = "sent %p pk (%l)"
*.host3.app[9].messageLength = 19B
*.host3.app[9].sendInterval = 100us
*.host3.app[9].startTime = 400us
*.host3.app[9].stopTime = 1000us
*.host3.app[9].display-name = "type2_14"
*.host3.app[9].destPort = 1001
                            
*.host3.app[10].typename = "UdpBasicApp"
*.host3.app[10].destAddresses = "host14"
*.host3.app[10].source.packetNameFormat = "%M-%m-%c"
*.host3.app[10].source.displayStringTextFormat = "sent %p pk (%l)"
*.host3.app[10].messageLength = 19B
*.host3.app[10].sendInterval = 100us
*.host3.app[10].startTime = 1300us
*.host3.app[10].stopTime = 1600us
*.host3.app[10].display-name = "type2_14"
*.host3.app[10].destPort = 1001
                            
*.host3.app[11].typename = "UdpBasicApp"
*.host3.app[11].destAddresses = "host14"
*.host3.app[11].source.packetNameFormat = "%M-%m-%c"
*.host3.app[11].source.displayStringTextFormat = "sent %p pk (%l)"
*.host3.app[11].messageLength = 19B
*.host3.app[11].sendInterval = 100us
*.host3.app[11].startTime = 1900us
*.host3.app[11].stopTime = 2500us
*.host3.app[11].display-name = "type2_14"
*.host3.app[11].destPort = 1001
                            
*.host3.app[12].typename = "UdpBasicApp"
*.host3.app[12].destAddresses = "host14"
*.host3.app[12].source.packetNameFormat = "%M-%m-%c"
*.host3.app[12].source.displayStringTextFormat = "sent %p pk (%l)"
*.host3.app[12].messageLength = 19B
*.host3.app[12].sendInterval = 100us
*.host3.app[12].startTime = 2600us
*.host3.app[12].stopTime = 2900us
*.host3.app[12].display-name = "type2_14"
*.host3.app[12].destPort = 1001
                            
*.host3.app[13].typename = "UdpBasicApp"
*.host3.app[13].destAddresses = "host14"
*.host3.app[13].source.packetNameFormat = "%M-%m-%c"
*.host3.app[13].source.displayStringTextFormat = "sent %p pk (%l)"
*.host3.app[13].messageLength = 19B
*.host3.app[13].sendInterval = 100us
*.host3.app[13].startTime = 3400us
*.host3.app[13].stopTime = 3500us
*.host3.app[13].display-name = "type2_14"
*.host3.app[13].destPort = 1001
                            
*.host3.app[14].typename = "UdpBasicApp"
*.host3.app[14].destAddresses = "host14"
*.host3.app[14].source.packetNameFormat = "%M-%m-%c"
*.host3.app[14].source.displayStringTextFormat = "sent %p pk (%l)"
*.host3.app[14].messageLength = 19B
*.host3.app[14].sendInterval = 100us
*.host3.app[14].startTime = 3700us
*.host3.app[14].stopTime = 4300us
*.host3.app[14].display-name = "type2_14"
*.host3.app[14].destPort = 1001
                            
*.host3.app[15].typename = "UdpBasicApp"
*.host3.app[15].destAddresses = "host14"
*.host3.app[15].source.packetNameFormat = "%M-%m-%c"
*.host3.app[15].source.displayStringTextFormat = "sent %p pk (%l)"
*.host3.app[15].messageLength = 19B
*.host3.app[15].sendInterval = 100us
*.host3.app[15].startTime = 4900us
*.host3.app[15].stopTime = 5200us
*.host3.app[15].display-name = "type2_14"
*.host3.app[15].destPort = 1001
                            
*.host3.app[16].typename = "UdpBasicApp"
*.host3.app[16].destAddresses = "host14"
*.host3.app[16].source.packetNameFormat = "%M-%m-%c"
*.host3.app[16].source.displayStringTextFormat = "sent %p pk (%l)"
*.host3.app[16].messageLength = 19B
*.host3.app[16].sendInterval = 100us
*.host3.app[16].startTime = 5300us
*.host3.app[16].stopTime = 5500us
*.host3.app[16].display-name = "type2_14"
*.host3.app[16].destPort = 1001
                            
*.host3.app[17].typename = "UdpBasicApp"
*.host3.app[17].destAddresses = "host14"
*.host3.app[17].source.packetNameFormat = "%M-%m-%c"
*.host3.app[17].source.displayStringTextFormat = "sent %p pk (%l)"
*.host3.app[17].messageLength = 19B
*.host3.app[17].sendInterval = 100us
*.host3.app[17].startTime = 5700us
*.host3.app[17].stopTime = 5900us
*.host3.app[17].display-name = "type2_14"
*.host3.app[17].destPort = 1001
                            
*.host3.app[18].typename = "UdpBasicApp"
*.host3.app[18].destAddresses = "host14"
*.host3.app[18].source.packetNameFormat = "%M-%m-%c"
*.host3.app[18].source.displayStringTextFormat = "sent %p pk (%l)"
*.host3.app[18].messageLength = 19B
*.host3.app[18].sendInterval = 100us
*.host3.app[18].startTime = 6200us
*.host3.app[18].stopTime = 6700us
*.host3.app[18].display-name = "type2_14"
*.host3.app[18].destPort = 1001
                            
*.host3.app[19].typename = "UdpBasicApp"
*.host3.app[19].destAddresses = "host14"
*.host3.app[19].source.packetNameFormat = "%M-%m-%c"
*.host3.app[19].source.displayStringTextFormat = "sent %p pk (%l)"
*.host3.app[19].messageLength = 19B
*.host3.app[19].sendInterval = 100us
*.host3.app[19].startTime = 6900us
*.host3.app[19].stopTime = 7300us
*.host3.app[19].display-name = "type2_14"
*.host3.app[19].destPort = 1001
                            
*.host3.app[20].typename = "UdpBasicApp"
*.host3.app[20].destAddresses = "host14"
*.host3.app[20].source.packetNameFormat = "%M-%m-%c"
*.host3.app[20].source.displayStringTextFormat = "sent %p pk (%l)"
*.host3.app[20].messageLength = 19B
*.host3.app[20].sendInterval = 100us
*.host3.app[20].startTime = 7600us
*.host3.app[20].stopTime = 7700us
*.host3.app[20].display-name = "type2_14"
*.host3.app[20].destPort = 1001
                            
*.host3.app[21].typename = "UdpBasicApp"
*.host3.app[21].destAddresses = "host14"
*.host3.app[21].source.packetNameFormat = "%M-%m-%c"
*.host3.app[21].source.displayStringTextFormat = "sent %p pk (%l)"
*.host3.app[21].messageLength = 19B
*.host3.app[21].sendInterval = 100us
*.host3.app[21].startTime = 7800us
*.host3.app[21].stopTime = 8400us
*.host3.app[21].display-name = "type2_14"
*.host3.app[21].destPort = 1001
                            
*.host3.app[22].typename = "UdpBasicApp"
*.host3.app[22].destAddresses = "host14"
*.host3.app[22].source.packetNameFormat = "%M-%m-%c"
*.host3.app[22].source.displayStringTextFormat = "sent %p pk (%l)"
*.host3.app[22].messageLength = 19B
*.host3.app[22].sendInterval = 100us
*.host3.app[22].startTime = 8800us
*.host3.app[22].stopTime = 8900us
*.host3.app[22].display-name = "type2_14"
*.host3.app[22].destPort = 1001
                            
*.host3.app[23].typename = "UdpBasicApp"
*.host3.app[23].destAddresses = "host14"
*.host3.app[23].source.packetNameFormat = "%M-%m-%c"
*.host3.app[23].source.displayStringTextFormat = "sent %p pk (%l)"
*.host3.app[23].messageLength = 19B
*.host3.app[23].sendInterval = 100us
*.host3.app[23].startTime = 9000us
*.host3.app[23].stopTime = 9100us
*.host3.app[23].display-name = "type2_14"
*.host3.app[23].destPort = 1001
                            
*.host3.app[24].typename = "UdpBasicApp"
*.host3.app[24].destAddresses = "host14"
*.host3.app[24].source.packetNameFormat = "%M-%m-%c"
*.host3.app[24].source.displayStringTextFormat = "sent %p pk (%l)"
*.host3.app[24].messageLength = 19B
*.host3.app[24].sendInterval = 100us
*.host3.app[24].startTime = 9200us
*.host3.app[24].stopTime = 9400us
*.host3.app[24].display-name = "type2_14"
*.host3.app[24].destPort = 1001
                            
*.host3.app[25].typename = "UdpBasicApp"
*.host3.app[25].destAddresses = "host14"
*.host3.app[25].source.packetNameFormat = "%M-%m-%c"
*.host3.app[25].source.displayStringTextFormat = "sent %p pk (%l)"
*.host3.app[25].messageLength = 19B
*.host3.app[25].sendInterval = 100us
*.host3.app[25].startTime = 9600us
*.host3.app[25].stopTime = 9700us
*.host3.app[25].display-name = "type2_14"
*.host3.app[25].destPort = 1001
                            
*.host3.app[26].typename = "UdpBasicApp"
*.host3.app[26].destAddresses = "host14"
*.host3.app[26].source.packetNameFormat = "%M-%m-%c"
*.host3.app[26].source.displayStringTextFormat = "sent %p pk (%l)"
*.host3.app[26].messageLength = 19B
*.host3.app[26].sendInterval = 100us
*.host3.app[26].startTime = 9800us
*.host3.app[26].stopTime = 10000us
*.host3.app[26].display-name = "type2_14"
*.host3.app[26].destPort = 1001
                            
*.host4.numApps = 1

*.host4.app[0].typename = "UdpSinkApp"
*.host4.app[0].io.localPort = 1000
                        
*.host5.numApps = 2

*.host5.app[0].typename = "UdpSinkApp"
*.host5.app[0].io.localPort = 1000
                        
*.host5.app[1].typename = "UdpSinkApp"
*.host5.app[1].io.localPort = 1001
                        
*.host6.numApps = 85

*.host6.app[0].typename = "UdpSinkApp"
*.host6.app[0].io.localPort = 1000
                        
*.host6.app[1].typename = "UdpSinkApp"
*.host6.app[1].io.localPort = 1001
                        
*.host6.app[2].typename = "UdpSinkApp"
*.host6.app[2].io.localPort = 1002
                        
*.host6.app[3].typename = "UdpBasicApp"
*.host6.app[3].destAddresses = "host3"
*.host6.app[3].source.packetNameFormat = "%M-%m-%c"
*.host6.app[3].source.displayStringTextFormat = "sent %p pk (%l)"
*.host6.app[3].messageLength = 19B
*.host6.app[3].sendInterval = 100us
*.host6.app[3].startTime = 0us
*.host6.app[3].stopTime = 200us
*.host6.app[3].display-name = "type2_5"
*.host6.app[3].destPort = 1000
                            
*.host6.app[4].typename = "UdpBasicApp"
*.host6.app[4].destAddresses = "host3"
*.host6.app[4].source.packetNameFormat = "%M-%m-%c"
*.host6.app[4].source.displayStringTextFormat = "sent %p pk (%l)"
*.host6.app[4].messageLength = 19B
*.host6.app[4].sendInterval = 100us
*.host6.app[4].startTime = 300us
*.host6.app[4].stopTime = 900us
*.host6.app[4].display-name = "type2_5"
*.host6.app[4].destPort = 1000
                            
*.host6.app[5].typename = "UdpBasicApp"
*.host6.app[5].destAddresses = "host3"
*.host6.app[5].source.packetNameFormat = "%M-%m-%c"
*.host6.app[5].source.displayStringTextFormat = "sent %p pk (%l)"
*.host6.app[5].messageLength = 19B
*.host6.app[5].sendInterval = 100us
*.host6.app[5].startTime = 1000us
*.host6.app[5].stopTime = 1400us
*.host6.app[5].display-name = "type2_5"
*.host6.app[5].destPort = 1000
                            
*.host6.app[6].typename = "UdpBasicApp"
*.host6.app[6].destAddresses = "host3"
*.host6.app[6].source.packetNameFormat = "%M-%m-%c"
*.host6.app[6].source.displayStringTextFormat = "sent %p pk (%l)"
*.host6.app[6].messageLength = 19B
*.host6.app[6].sendInterval = 100us
*.host6.app[6].startTime = 1500us
*.host6.app[6].stopTime = 1900us
*.host6.app[6].display-name = "type2_5"
*.host6.app[6].destPort = 1000
                            
*.host6.app[7].typename = "UdpBasicApp"
*.host6.app[7].destAddresses = "host3"
*.host6.app[7].source.packetNameFormat = "%M-%m-%c"
*.host6.app[7].source.displayStringTextFormat = "sent %p pk (%l)"
*.host6.app[7].messageLength = 19B
*.host6.app[7].sendInterval = 100us
*.host6.app[7].startTime = 2400us
*.host6.app[7].stopTime = 2900us
*.host6.app[7].display-name = "type2_5"
*.host6.app[7].destPort = 1000
                            
*.host6.app[8].typename = "UdpBasicApp"
*.host6.app[8].destAddresses = "host3"
*.host6.app[8].source.packetNameFormat = "%M-%m-%c"
*.host6.app[8].source.displayStringTextFormat = "sent %p pk (%l)"
*.host6.app[8].messageLength = 19B
*.host6.app[8].sendInterval = 100us
*.host6.app[8].startTime = 3200us
*.host6.app[8].stopTime = 3300us
*.host6.app[8].display-name = "type2_5"
*.host6.app[8].destPort = 1000
                            
*.host6.app[9].typename = "UdpBasicApp"
*.host6.app[9].destAddresses = "host3"
*.host6.app[9].source.packetNameFormat = "%M-%m-%c"
*.host6.app[9].source.displayStringTextFormat = "sent %p pk (%l)"
*.host6.app[9].messageLength = 19B
*.host6.app[9].sendInterval = 100us
*.host6.app[9].startTime = 3600us
*.host6.app[9].stopTime = 3900us
*.host6.app[9].display-name = "type2_5"
*.host6.app[9].destPort = 1000
                            
*.host6.app[10].typename = "UdpBasicApp"
*.host6.app[10].destAddresses = "host3"
*.host6.app[10].source.packetNameFormat = "%M-%m-%c"
*.host6.app[10].source.displayStringTextFormat = "sent %p pk (%l)"
*.host6.app[10].messageLength = 19B
*.host6.app[10].sendInterval = 100us
*.host6.app[10].startTime = 4000us
*.host6.app[10].stopTime = 4100us
*.host6.app[10].display-name = "type2_5"
*.host6.app[10].destPort = 1000
                            
*.host6.app[11].typename = "UdpBasicApp"
*.host6.app[11].destAddresses = "host3"
*.host6.app[11].source.packetNameFormat = "%M-%m-%c"
*.host6.app[11].source.displayStringTextFormat = "sent %p pk (%l)"
*.host6.app[11].messageLength = 19B
*.host6.app[11].sendInterval = 100us
*.host6.app[11].startTime = 4300us
*.host6.app[11].stopTime = 4500us
*.host6.app[11].display-name = "type2_5"
*.host6.app[11].destPort = 1000
                            
*.host6.app[12].typename = "UdpBasicApp"
*.host6.app[12].destAddresses = "host3"
*.host6.app[12].source.packetNameFormat = "%M-%m-%c"
*.host6.app[12].source.displayStringTextFormat = "sent %p pk (%l)"
*.host6.app[12].messageLength = 19B
*.host6.app[12].sendInterval = 100us
*.host6.app[12].startTime = 4600us
*.host6.app[12].stopTime = 4700us
*.host6.app[12].display-name = "type2_5"
*.host6.app[12].destPort = 1000
                            
*.host6.app[13].typename = "UdpBasicApp"
*.host6.app[13].destAddresses = "host3"
*.host6.app[13].source.packetNameFormat = "%M-%m-%c"
*.host6.app[13].source.displayStringTextFormat = "sent %p pk (%l)"
*.host6.app[13].messageLength = 19B
*.host6.app[13].sendInterval = 100us
*.host6.app[13].startTime = 4800us
*.host6.app[13].stopTime = 5100us
*.host6.app[13].display-name = "type2_5"
*.host6.app[13].destPort = 1000
                            
*.host6.app[14].typename = "UdpBasicApp"
*.host6.app[14].destAddresses = "host3"
*.host6.app[14].source.packetNameFormat = "%M-%m-%c"
*.host6.app[14].source.displayStringTextFormat = "sent %p pk (%l)"
*.host6.app[14].messageLength = 19B
*.host6.app[14].sendInterval = 100us
*.host6.app[14].startTime = 5200us
*.host6.app[14].stopTime = 5300us
*.host6.app[14].display-name = "type2_5"
*.host6.app[14].destPort = 1000
                            
*.host6.app[15].typename = "UdpBasicApp"
*.host6.app[15].destAddresses = "host3"
*.host6.app[15].source.packetNameFormat = "%M-%m-%c"
*.host6.app[15].source.displayStringTextFormat = "sent %p pk (%l)"
*.host6.app[15].messageLength = 19B
*.host6.app[15].sendInterval = 100us
*.host6.app[15].startTime = 5400us
*.host6.app[15].stopTime = 5500us
*.host6.app[15].display-name = "type2_5"
*.host6.app[15].destPort = 1000
                            
*.host6.app[16].typename = "UdpBasicApp"
*.host6.app[16].destAddresses = "host3"
*.host6.app[16].source.packetNameFormat = "%M-%m-%c"
*.host6.app[16].source.displayStringTextFormat = "sent %p pk (%l)"
*.host6.app[16].messageLength = 19B
*.host6.app[16].sendInterval = 100us
*.host6.app[16].startTime = 5700us
*.host6.app[16].stopTime = 6000us
*.host6.app[16].display-name = "type2_5"
*.host6.app[16].destPort = 1000
                            
*.host6.app[17].typename = "UdpBasicApp"
*.host6.app[17].destAddresses = "host3"
*.host6.app[17].source.packetNameFormat = "%M-%m-%c"
*.host6.app[17].source.displayStringTextFormat = "sent %p pk (%l)"
*.host6.app[17].messageLength = 19B
*.host6.app[17].sendInterval = 100us
*.host6.app[17].startTime = 6100us
*.host6.app[17].stopTime = 6200us
*.host6.app[17].display-name = "type2_5"
*.host6.app[17].destPort = 1000
                            
*.host6.app[18].typename = "UdpBasicApp"
*.host6.app[18].destAddresses = "host3"
*.host6.app[18].source.packetNameFormat = "%M-%m-%c"
*.host6.app[18].source.displayStringTextFormat = "sent %p pk (%l)"
*.host6.app[18].messageLength = 19B
*.host6.app[18].sendInterval = 100us
*.host6.app[18].startTime = 6300us
*.host6.app[18].stopTime = 6700us
*.host6.app[18].display-name = "type2_5"
*.host6.app[18].destPort = 1000
                            
*.host6.app[19].typename = "UdpBasicApp"
*.host6.app[19].destAddresses = "host3"
*.host6.app[19].source.packetNameFormat = "%M-%m-%c"
*.host6.app[19].source.displayStringTextFormat = "sent %p pk (%l)"
*.host6.app[19].messageLength = 19B
*.host6.app[19].sendInterval = 100us
*.host6.app[19].startTime = 7200us
*.host6.app[19].stopTime = 7700us
*.host6.app[19].display-name = "type2_5"
*.host6.app[19].destPort = 1000
                            
*.host6.app[20].typename = "UdpBasicApp"
*.host6.app[20].destAddresses = "host3"
*.host6.app[20].source.packetNameFormat = "%M-%m-%c"
*.host6.app[20].source.displayStringTextFormat = "sent %p pk (%l)"
*.host6.app[20].messageLength = 19B
*.host6.app[20].sendInterval = 100us
*.host6.app[20].startTime = 8000us
*.host6.app[20].stopTime = 8200us
*.host6.app[20].display-name = "type2_5"
*.host6.app[20].destPort = 1000
                            
*.host6.app[21].typename = "UdpBasicApp"
*.host6.app[21].destAddresses = "host3"