[General]
network = TSN_multipath
sim-time-limit = 100ms
*.macForwardingTableConfigurator.typename = ""
*.*.hasStreamRedundancy = true
*.*.bridging.streamRelay.typename = "StreamRelayLayer"
*.*.bridging.streamCoder.typename = "StreamCoderLayer"
*.streamRedundancyConfigurator.typename = "StreamRedundancyConfigurator"
*.host0.eth[0].bitrate = 1000Mbps
*.switch0.eth[0].bitrate = 1000Mbps
*.switch0.eth[1].bitrate = 1500Mbps
*.switch0.eth[2].bitrate = 2100Mbps
*.switch0.eth[3].bitrate = 1500Mbps
*.switch0.eth[4].bitrate = 1800Mbps
*.switch0.eth[5].bitrate = 1500Mbps
*.switch0.eth[6].bitrate = 1200Mbps
*.switch0.eth[7].bitrate = 1800Mbps
*.switch0.eth[8].bitrate = 1200Mbps
*.switch0.eth[9].bitrate = 2300Mbps
*.switch0.eth[10].bitrate = 2300Mbps
*.switch0.eth[11].bitrate = 2400Mbps
*.switch0.eth[12].bitrate = 1300Mbps
*.switch0.eth[13].bitrate = 2300Mbps
*.host1.eth[0].bitrate = 1000Mbps
*.switch1.eth[0].bitrate = 1000Mbps
*.switch1.eth[1].bitrate = 1200Mbps
*.switch1.eth[2].bitrate = 1700Mbps
*.switch1.eth[3].bitrate = 1900Mbps
*.switch1.eth[4].bitrate = 2100Mbps
*.switch1.eth[5].bitrate = 1500Mbps
*.switch1.eth[6].bitrate = 2300Mbps
*.switch1.eth[7].bitrate = 1800Mbps
*.switch1.eth[8].bitrate = 2100Mbps
*.switch1.eth[9].bitrate = 2300Mbps
*.switch1.eth[10].bitrate = 2200Mbps
*.host2.eth[0].bitrate = 1000Mbps
*.switch2.eth[0].bitrate = 1000Mbps
*.switch2.eth[1].bitrate = 1500Mbps
*.switch2.eth[2].bitrate = 2400Mbps
*.switch2.eth[3].bitrate = 1200Mbps
*.switch2.eth[4].bitrate = 1800Mbps
*.switch2.eth[5].bitrate = 1500Mbps
*.switch2.eth[6].bitrate = 1500Mbps
*.switch2.eth[7].bitrate = 1600Mbps
*.switch2.eth[8].bitrate = 1500Mbps
*.switch2.eth[9].bitrate = 1200Mbps
*.switch2.eth[10].bitrate = 2100Mbps
*.switch2.eth[11].bitrate = 1800Mbps
*.switch2.eth[12].bitrate = 2100Mbps
*.switch2.eth[13].bitrate = 1500Mbps
*.switch2.eth[14].bitrate = 2400Mbps
*.switch2.eth[15].bitrate = 1300Mbps
*.switch2.eth[16].bitrate = 1600Mbps
*.switch2.eth[17].bitrate = 1400Mbps
*.switch2.eth[18].bitrate = 1800Mbps
*.switch2.eth[19].bitrate = 1400Mbps
*.switch2.eth[20].bitrate = 2400Mbps
*.switch2.eth[21].bitrate = 2300Mbps
*.switch2.eth[22].bitrate = 1800Mbps
*.switch2.eth[23].bitrate = 1700Mbps
*.switch2.eth[24].bitrate = 2400Mbps
*.host3.eth[0].bitrate = 1000Mbps
*.switch3.eth[0].bitrate = 1000Mbps
*.switch3.eth[1].bitrate = 1500Mbps
*.switch3.eth[2].bitrate = 1800Mbps
*.switch3.eth[3].bitrate = 1500Mbps
*.switch3.eth[4].bitrate = 1400Mbps
*.switch3.eth[5].bitrate = 1600Mbps
*.switch3.eth[6].bitrate = 1600Mbps
*.switch3.eth[7].bitrate = 1200Mbps
*.switch3.eth[8].bitrate = 1300Mbps
*.switch3.eth[9].bitrate = 1200Mbps
*.switch3.eth[10].bitrate = 1700Mbps
*.switch3.eth[11].bitrate = 1400Mbps
*.switch3.eth[12].bitrate = 1800Mbps
*.switch3.eth[13].bitrate = 1400Mbps
*.switch3.eth[14].bitrate = 1300Mbps
*.switch3.eth[15].bitrate = 1700Mbps
*.switch3.eth[16].bitrate = 1500Mbps
*.switch3.eth[17].bitrate = 2100Mbps
*.switch3.eth[18].bitrate = 2100Mbps
*.switch3.eth[19].bitrate = 1800Mbps
*.switch3.eth[20].bitrate = 1700Mbps
*.switch3.eth[21].bitrate = 2200Mbps
*.host4.eth[0].bitrate = 1000Mbps
*.switch4.eth[0].bitrate = 1000Mbps
*.switch4.eth[1].bitrate = 2100Mbps
*.switch4.eth[2].bitrate = 1200Mbps
*.switch4.eth[3].bitrate = 1400Mbps
*.switch4.eth[4].bitrate = 1200Mbps
*.switch4.eth[5].bitrate = 2400Mbps
*.switch4.eth[6].bitrate = 2000Mbps
*.switch4.eth[7].bitrate = 2300Mbps
*.switch4.eth[8].bitrate = 1700Mbps
*.switch4.eth[9].bitrate = 2300Mbps
*.switch4.eth[10].bitrate = 1600Mbps
*.switch4.eth[11].bitrate = 1400Mbps
*.switch4.eth[12].bitrate = 1200Mbps
*.switch4.eth[13].bitrate = 1700Mbps
*.switch4.eth[14].bitrate = 1700Mbps
*.switch4.eth[15].bitrate = 1600Mbps
*.switch4.eth[16].bitrate = 2100Mbps
*.switch4.eth[17].bitrate = 1500Mbps
*.switch4.eth[18].bitrate = 1300Mbps
*.switch4.eth[19].bitrate = 1200Mbps
*.switch4.eth[20].bitrate = 1200Mbps
*.switch4.eth[21].bitrate = 2300Mbps
*.switch4.eth[22].bitrate = 1400Mbps
*.switch4.eth[23].bitrate = 2000Mbps
*.host5.eth[0].bitrate = 1000Mbps
*.switch5.eth[0].bitrate = 1000Mbps
*.switch5.eth[1].bitrate = 1500Mbps
*.switch5.eth[2].bitrate = 2300Mbps
*.switch5.eth[3].bitrate = 1300Mbps
*.switch5.eth[4].bitrate = 1700Mbps
*.switch5.eth[5].bitrate = 2100Mbps
*.switch5.eth[6].bitrate = 1500Mbps
*.switch5.eth[7].bitrate = 2100Mbps
*.switch5.eth[8].bitrate = 2300Mbps
*.switch5.eth[9].bitrate = 1500Mbps
*.switch5.eth[10].bitrate = 2300Mbps
*.switch5.eth[11].bitrate = 1200Mbps
*.switch5.eth[12].bitrate = 1600Mbps
*.switch5.eth[13].bitrate = 2400Mbps
*.switch5.eth[14].bitrate = 1200Mbps
*.switch5.eth[15].bitrate = 2000Mbps
*.switch5.eth[16].bitrate = 2200Mbps
*.switch5.eth[17].bitrate = 2100Mbps
*.switch5.eth[18].bitrate = 2300Mbps
*.switch5.eth[19].bitrate = 1700Mbps
*.switch5.eth[20].bitrate = 1800Mbps
*.switch5.eth[21].bitrate = 2300Mbps
*.switch5.eth[22].bitrate = 2200Mbps
*.switch5.eth[23].bitrate = 1300Mbps
*.switch5.eth[24].bitrate = 2100Mbps
*.host6.eth[0].bitrate = 1000Mbps
*.switch6.eth[0].bitrate = 1000Mbps
*.switch6.eth[1].bitrate = 2400Mbps
*.switch6.eth[2].bitrate = 1600Mbps
*.switch6.eth[3].bitrate = 2000Mbps
*.switch6.eth[4].bitrate = 1500Mbps
*.switch6.eth[5].bitrate = 2300Mbps
*.switch6.eth[6].bitrate = 1700Mbps
*.switch6.eth[7].bitrate = 1200Mbps
*.switch6.eth[8].bitrate = 1200Mbps
*.switch6.eth[9].bitrate = 1700Mbps
*.switch6.eth[10].bitrate = 1200Mbps
*.switch6.eth[11].bitrate = 1800Mbps
*.switch6.eth[12].bitrate = 1300Mbps
*.switch6.eth[13].bitrate = 1300Mbps
*.switch6.eth[14].bitrate = 1800Mbps
*.host7.eth[0].bitrate = 1000Mbps
*.switch7.eth[0].bitrate = 1000Mbps
*.switch7.eth[1].bitrate = 1700Mbps
*.switch7.eth[2].bitrate = 1200Mbps
*.switch7.eth[3].bitrate = 1600Mbps
*.switch7.eth[4].bitrate = 2300Mbps
*.switch7.eth[5].bitrate = 2100Mbps
*.switch7.eth[6].bitrate = 2300Mbps
*.switch7.eth[7].bitrate = 2100Mbps
*.switch7.eth[8].bitrate = 1200Mbps
*.switch7.eth[9].bitrate = 2400Mbps
*.switch7.eth[10].bitrate = 1400Mbps
*.switch7.eth[11].bitrate = 2400Mbps
*.switch7.eth[12].bitrate = 1700Mbps
*.switch7.eth[13].bitrate = 1500Mbps
*.switch7.eth[14].bitrate = 2400Mbps
*.switch7.eth[15].bitrate = 1800Mbps
*.host8.eth[0].bitrate = 1000Mbps
*.switch8.eth[0].bitrate = 1000Mbps
*.switch8.eth[1].bitrate = 1800Mbps
*.switch8.eth[2].bitrate = 1200Mbps
*.switch8.eth[3].bitrate = 1700Mbps
*.switch8.eth[4].bitrate = 2300Mbps
*.switch8.eth[5].bitrate = 2300Mbps
*.switch8.eth[6].bitrate = 1800Mbps
*.switch8.eth[7].bitrate = 1600Mbps
*.switch8.eth[8].bitrate = 1500Mbps
*.switch8.eth[9].bitrate = 1500Mbps
*.switch8.eth[10].bitrate = 2300Mbps
*.switch8.eth[11].bitrate = 1200Mbps
*.switch8.eth[12].bitrate = 1400Mbps
*.switch8.eth[13].bitrate = 1600Mbps
*.switch8.eth[14].bitrate = 2300Mbps
*.switch8.eth[15].bitrate = 1600Mbps
*.switch8.eth[16].bitrate = 1400Mbps
*.switch8.eth[17].bitrate = 1500Mbps
*.switch8.eth[18].bitrate = 1200Mbps
*.switch8.eth[19].bitrate = 1900Mbps
*.switch8.eth[20].bitrate = 2400Mbps
*.switch8.eth[21].bitrate = 2100Mbps
*.switch8.eth[22].bitrate = 2300Mbps
*.switch8.eth[23].bitrate = 1800Mbps
*.switch8.eth[24].bitrate = 1200Mbps
*.host9.eth[0].bitrate = 1000Mbps
*.switch9.eth[0].bitrate = 1000Mbps
*.switch9.eth[1].bitrate = 1500Mbps
*.switch9.eth[2].bitrate = 1300Mbps
*.switch9.eth[3].bitrate = 1500Mbps
*.switch9.eth[4].bitrate = 1600Mbps
*.switch9.eth[5].bitrate = 1400Mbps
*.switch9.eth[6].bitrate = 2100Mbps
*.switch9.eth[7].bitrate = 1300Mbps
*.switch9.eth[8].bitrate = 1700Mbps
*.switch9.eth[9].bitrate = 2400Mbps
*.switch9.eth[10].bitrate = 1500Mbps
*.switch9.eth[11].bitrate = 2200Mbps
*.switch9.eth[12].bitrate = 2300Mbps
*.switch9.eth[13].bitrate = 2400Mbps
*.switch9.eth[14].bitrate = 2200Mbps
*.switch9.eth[15].bitrate = 2400Mbps
*.switch9.eth[16].bitrate = 1400Mbps
*.switch9.eth[17].bitrate = 1800Mbps
*.switch9.eth[18].bitrate = 2400Mbps
*.switch9.eth[19].bitrate = 2000Mbps
*.switch9.eth[20].bitrate = 2200Mbps
*.switch9.eth[21].bitrate = 1800Mbps
*.switch9.eth[22].bitrate = 1500Mbps
*.switch9.eth[23].bitrate = 1200Mbps
*.switch9.eth[24].bitrate = 2200Mbps
*.host10.eth[0].bitrate = 1000Mbps
*.switch10.eth[0].bitrate = 1000Mbps
*.switch10.eth[1].bitrate = 1800Mbps
*.switch10.eth[2].bitrate = 1500Mbps
*.switch10.eth[3].bitrate = 1200Mbps
*.switch10.eth[4].bitrate = 2300Mbps
*.switch10.eth[5].bitrate = 2300Mbps
*.switch10.eth[6].bitrate = 2200Mbps
*.switch10.eth[7].bitrate = 2300Mbps
*.switch10.eth[8].bitrate = 1800Mbps
*.switch10.eth[9].bitrate = 2100Mbps
*.switch10.eth[10].bitrate = 1700Mbps
*.switch10.eth[11].bitrate = 1200Mbps
*.switch10.eth[12].bitrate = 1700Mbps
*.switch10.eth[13].bitrate = 1200Mbps
*.switch10.eth[14].bitrate = 2000Mbps
*.switch10.eth[15].bitrate = 1500Mbps
*.switch10.eth[16].bitrate = 1300Mbps
*.switch10.eth[17].bitrate = 1700Mbps
*.switch10.eth[18].bitrate = 1600Mbps
*.switch10.eth[19].bitrate = 2200Mbps
*.switch10.eth[20].bitrate = 1800Mbps
*.switch10.eth[21].bitrate = 1800Mbps
*.switch10.eth[22].bitrate = 1900Mbps
*.switch10.eth[23].bitrate = 2200Mbps
*.host11.eth[0].bitrate = 1000Mbps
*.switch11.eth[0].bitrate = 1000Mbps
*.switch11.eth[1].bitrate = 1500Mbps
*.switch11.eth[2].bitrate = 1900Mbps
*.switch11.eth[3].bitrate = 1600Mbps
*.switch11.eth[4].bitrate = 1700Mbps
*.switch11.eth[5].bitrate = 1600Mbps
*.switch11.eth[6].bitrate = 1200Mbps
*.switch11.eth[7].bitrate = 2300Mbps
*.switch11.eth[8].bitrate = 2300Mbps
*.switch11.eth[9].bitrate = 1500Mbps
*.switch11.eth[10].bitrate = 1400Mbps
*.switch11.eth[11].bitrate = 1800Mbps
*.switch11.eth[12].bitrate = 1900Mbps
*.switch11.eth[13].bitrate = 1800Mbps
*.switch11.eth[14].bitrate = 2100Mbps
*.host12.eth[0].bitrate = 1000Mbps
*.switch12.eth[0].bitrate = 1000Mbps
*.switch12.eth[1].bitrate = 1500Mbps
*.switch12.eth[2].bitrate = 1400Mbps
*.switch12.eth[3].bitrate = 1600Mbps
*.switch12.eth[4].bitrate = 1600Mbps
*.switch12.eth[5].bitrate = 2400Mbps
*.switch12.eth[6].bitrate = 1800Mbps
*.switch12.eth[7].bitrate = 2400Mbps
*.switch12.eth[8].bitrate = 2100Mbps
*.switch12.eth[9].bitrate = 1800Mbps
*.switch12.eth[10].bitrate = 1200Mbps
*.switch12.eth[11].bitrate = 1800Mbps
*.switch12.eth[12].bitrate = 1300Mbps
*.switch12.eth[13].bitrate = 1500Mbps
*.switch12.eth[14].bitrate = 2400Mbps
*.switch12.eth[15].bitrate = 2200Mbps
*.switch12.eth[16].bitrate = 2200Mbps
*.switch12.eth[17].bitrate = 1200Mbps
*.switch12.eth[18].bitrate = 1300Mbps
*.switch12.eth[19].bitrate = 1900Mbps
*.switch12.eth[20].bitrate = 1200Mbps
*.switch12.eth[21].bitrate = 1300Mbps
*.switch12.eth[22].bitrate = 1500Mbps
*.switch12.eth[23].bitrate = 1500Mbps
*.switch12.eth[24].bitrate = 1800Mbps
*.host13.eth[0].bitrate = 1000Mbps
*.switch13.eth[0].bitrate = 1000Mbps
*.switch13.eth[1].bitrate = 1200Mbps
*.switch13.eth[2].bitrate = 1400Mbps
*.switch13.eth[3].bitrate = 2400Mbps
*.switch13.eth[4].bitrate = 2200Mbps
*.switch13.eth[5].bitrate = 1300Mbps
*.switch13.eth[6].bitrate = 2200Mbps
*.switch13.eth[7].bitrate = 1300Mbps
*.switch13.eth[8].bitrate = 2300Mbps
*.switch13.eth[9].bitrate = 1800Mbps
*.switch13.eth[10].bitrate = 1600Mbps
*.switch13.eth[11].bitrate = 1600Mbps
*.switch13.eth[12].bitrate = 1800Mbps
*.switch13.eth[13].bitrate = 2300Mbps
*.switch13.eth[14].bitrate = 2300Mbps
*.host14.eth[0].bitrate = 1000Mbps
*.switch14.eth[0].bitrate = 1000Mbps
*.switch14.eth[1].bitrate = 2100Mbps
*.switch14.eth[2].bitrate = 1200Mbps
*.switch14.eth[3].bitrate = 1200Mbps
*.switch14.eth[4].bitrate = 1600Mbps
*.switch14.eth[5].bitrate = 2300Mbps
*.switch14.eth[6].bitrate = 2300Mbps
*.switch14.eth[7].bitrate = 2400Mbps
*.switch14.eth[8].bitrate = 1200Mbps
*.switch14.eth[9].bitrate = 2200Mbps
*.switch14.eth[10].bitrate = 2400Mbps
*.switch14.eth[11].bitrate = 2100Mbps
*.switch14.eth[12].bitrate = 1800Mbps
*.switch14.eth[13].bitrate = 2100Mbps
*.switch14.eth[14].bitrate = 1500Mbps
*.switch14.eth[15].bitrate = 1800Mbps
*.switch14.eth[16].bitrate = 1700Mbps
*.switch14.eth[17].bitrate = 1500Mbps
*.switch14.eth[18].bitrate = 1400Mbps
*.switch14.eth[19].bitrate = 1800Mbps
*.host15.eth[0].bitrate = 1000Mbps
*.switch15.eth[0].bitrate = 1000Mbps
*.switch15.eth[1].bitrate = 1800Mbps
*.switch15.eth[2].bitrate = 1800Mbps
*.switch15.eth[3].bitrate = 1700Mbps
*.switch15.eth[4].bitrate = 1200Mbps
*.switch15.eth[5].bitrate = 2400Mbps
*.switch15.eth[6].bitrate = 1700Mbps
*.switch15.eth[7].bitrate = 1300Mbps
*.switch15.eth[8].bitrate = 1700Mbps
*.switch15.eth[9].bitrate = 2300Mbps
*.switch15.eth[10].bitrate = 1500Mbps
*.switch15.eth[11].bitrate = 2100Mbps
*.switch15.eth[12].bitrate = 2100Mbps
*.switch15.eth[13].bitrate = 1700Mbps
*.switch15.eth[14].bitrate = 1300Mbps
*.host16.eth[0].bitrate = 1000Mbps
*.switch16.eth[0].bitrate = 1000Mbps
*.switch16.eth[1].bitrate = 1400Mbps
*.switch16.eth[2].bitrate = 1700Mbps
*.switch16.eth[3].bitrate = 2000Mbps
*.switch16.eth[4].bitrate = 2400Mbps
*.switch16.eth[5].bitrate = 1400Mbps
*.switch16.eth[6].bitrate = 1600Mbps
*.switch16.eth[7].bitrate = 1900Mbps
*.switch16.eth[8].bitrate = 1500Mbps
*.switch16.eth[9].bitrate = 2100Mbps
*.switch16.eth[10].bitrate = 1700Mbps
*.switch16.eth[11].bitrate = 2300Mbps
*.switch16.eth[12].bitrate = 1300Mbps
*.switch16.eth[13].bitrate = 1300Mbps
*.switch16.eth[14].bitrate = 1800Mbps
*.switch16.eth[15].bitrate = 2300Mbps
*.switch16.eth[16].bitrate = 1200Mbps
*.switch16.eth[17].bitrate = 1900Mbps
*.switch16.eth[18].bitrate = 1800Mbps
*.switch16.eth[19].bitrate = 2300Mbps
*.switch16.eth[20].bitrate = 1400Mbps
*.switch16.eth[21].bitrate = 2100Mbps
*.switch16.eth[22].bitrate = 2000Mbps
*.switch16.eth[23].bitrate = 1600Mbps
*.switch16.eth[24].bitrate = 1900Mbps
*.host17.eth[0].bitrate = 1000Mbps
*.switch17.eth[0].bitrate = 1000Mbps
*.switch17.eth[1].bitrate = 1200Mbps
*.switch17.eth[2].bitrate = 2100Mbps
*.switch17.eth[3].bitrate = 1300Mbps
*.switch17.eth[4].bitrate = 1600Mbps
*.switch17.eth[5].bitrate = 2200Mbps
*.switch17.eth[6].bitrate = 1800Mbps
*.switch17.eth[7].bitrate = 2200Mbps
*.switch17.eth[8].bitrate = 1200Mbps
*.switch17.eth[9].bitrate = 1600Mbps
*.switch17.eth[10].bitrate = 2200Mbps
*.switch17.eth[11].bitrate = 1800Mbps
*.switch17.eth[12].bitrate = 1400Mbps
*.switch17.eth[13].bitrate = 1800Mbps
*.switch17.eth[14].bitrate = 2200Mbps
*.switch17.eth[15].bitrate = 2200Mbps
*.switch17.eth[16].bitrate = 1700Mbps
*.switch17.eth[17].bitrate = 2300Mbps
*.host18.eth[0].bitrate = 1000Mbps
*.switch18.eth[0].bitrate = 1000Mbps
*.switch18.eth[1].bitrate = 1700Mbps
*.switch18.eth[2].bitrate = 1400Mbps
*.switch18.eth[3].bitrate = 1800Mbps
*.switch18.eth[4].bitrate = 1300Mbps
*.switch18.eth[5].bitrate = 2000Mbps
*.switch18.eth[6].bitrate = 1700Mbps
*.switch18.eth[7].bitrate = 2200Mbps
*.switch18.eth[8].bitrate = 2100Mbps
*.switch18.eth[9].bitrate = 1800Mbps
*.switch18.eth[10].bitrate = 1900Mbps
*.switch18.eth[11].bitrate = 2300Mbps
*.switch18.eth[12].bitrate = 1700Mbps
*.host19.eth[0].bitrate = 1000Mbps
*.switch19.eth[0].bitrate = 1000Mbps
*.switch19.eth[1].bitrate = 2100Mbps
*.switch19.eth[2].bitrate = 2400Mbps
*.switch19.eth[3].bitrate = 1500Mbps
*.switch19.eth[4].bitrate = 1600Mbps
*.switch19.eth[5].bitrate = 2400Mbps
*.switch19.eth[6].bitrate = 2000Mbps
*.switch19.eth[7].bitrate = 1200Mbps
*.switch19.eth[8].bitrate = 2300Mbps
*.switch19.eth[9].bitrate = 1800Mbps
*.switch19.eth[10].bitrate = 1300Mbps
*.switch19.eth[11].bitrate = 1700Mbps
*.host0.numApps = 5
*.host0.app[0].typename = "UdpSinkApp"
*.host0.app[0].io.localPort = 1000
*.host0.app[1].typename = "UdpSinkApp"
*.host0.app[1].io.localPort = 1001
*.host0.app[2].typename = "UdpBasicApp"
*.host0.app[2].destAddresses = "host14"
*.host0.app[2].source.packetNameFormat = "%M-%m-%c"
*.host0.app[2].source.displayStringTextFormat = "sent %p pk (%l)"
*.host0.app[2].messageLength = 24B
*.host0.app[2].sendInterval = 1ms
*.host0.app[2].startTime = 0ms
*.host0.app[2].stopTime = 34ms
*.host0.app[2].display-name = "type2_6"
*.host0.app[2].destPort = 1000
*.host0.app[3].typename = "UdpBasicApp"
*.host0.app[3].destAddresses = "host14"
*.host0.app[3].source.packetNameFormat = "%M-%m-%c"
*.host0.app[3].source.displayStringTextFormat = "sent %p pk (%l)"
*.host0.app[3].messageLength = 24B
*.host0.app[3].sendInterval = 1ms
*.host0.app[3].startTime = 36ms
*.host0.app[3].stopTime = 41ms
*.host0.app[3].display-name = "type2_6"
*.host0.app[3].destPort = 1000
*.host0.app[4].typename = "UdpBasicApp"
*.host0.app[4].destAddresses = "host14"
*.host0.app[4].source.packetNameFormat = "%M-%m-%c"
*.host0.app[4].source.displayStringTextFormat = "sent %p pk (%l)"
*.host0.app[4].messageLength = 24B
*.host0.app[4].sendInterval = 1ms
*.host0.app[4].startTime = 86ms
*.host0.app[4].stopTime = 100ms
*.host0.app[4].display-name = "type2_6"
*.host0.app[4].destPort = 1000
*.host1.numApps = 3
*.host1.app[0].typename = "UdpSourceApp"
*.host1.app[0].io.destAddress = "host15"
*.host1.app[0].source.packetNameFormat = "%M-%m-%c"
*.host1.app[0].source.displayStringTextFormat = "sent %p pk (%l)"
*.host1.app[0].source.packetLength = 22B
*.host1.app[0].source.productionInterval = 1ms
*.host1.app[0].display-name = "type1_3"
*.host1.app[0].io.destPort = 1000
*.host1.app[1].typename = "UdpSinkApp"
*.host1.app[1].io.localPort = 1000
*.host1.app[2].typename = "UdpSinkApp"
*.host1.app[2].io.localPort = 1001
*.host2.numApps = 6
*.host2.app[0].typename = "UdpSinkApp"
*.host2.app[0].io.localPort = 1000
*.host2.app[1].typename = "UdpBasicApp"
*.host2.app[1].destAddresses = "host7"
*.host2.app[1].source.packetNameFormat = "%M-%m-%c"
*.host2.app[1].source.displayStringTextFormat = "sent %p pk (%l)"
*.host2.app[1].messageLength = 22B
*.host2.app[1].sendInterval = 1ms
*.host2.app[1].startTime = 17ms
*.host2.app[1].stopTime = 20ms
*.host2.app[1].display-name = "type2_1"
*.host2.app[1].destPort = 1001
*.host2.app[2].typename = "UdpBasicApp"
*.host2.app[2].destAddresses = "host7"
*.host2.app[2].source.packetNameFormat = "%M-%m-%c"
*.host2.app[2].source.displayStringTextFormat = "sent %p pk (%l)"
*.host2.app[2].messageLength = 22B
*.host2.app[2].sendInterval = 1ms
*.host2.app[2].startTime = 46ms
*.host2.app[2].stopTime = 58ms
*.host2.app[2].display-name = "type2_1"
*.host2.app[2].destPort = 1001
*.host2.app[3].typename = "UdpBasicApp"
*.host2.app[3].destAddresses = "host7"
*.host2.app[3].source.packetNameFormat = "%M-%m-%c"
*.host2.app[3].source.displayStringTextFormat = "sent %p pk (%l)"
*.host2.app[3].messageLength = 22B
*.host2.app[3].sendInterval = 1ms
*.host2.app[3].startTime = 62ms
*.host2.app[3].stopTime = 75ms
*.host2.app[3].display-name = "type2_1"
*.host2.app[3].destPort = 1001
*.host2.app[4].typename = "UdpBasicApp"
*.host2.app[4].destAddresses = "host7"
*.host2.app[4].source.packetNameFormat = "%M-%m-%c"
*.host2.app[4].source.displayStringTextFormat = "sent %p pk (%l)"
*.host2.app[4].messageLength = 22B
*.host2.app[4].sendInterval = 1ms
*.host2.app[4].startTime = 87ms
*.host2.app[4].stopTime = 91ms
*.host2.app[4].display-name = "type2_1"
*.host2.app[4].destPort = 1001
*.host2.app[5].typename = "UdpBasicApp"
*.host2.app[5].destAddresses = "host7"
*.host2.app[5].source.packetNameFormat = "%M-%m-%c"
*.host2.app[5].source.displayStringTextFormat = "sent %p pk (%l)"
*.host2.app[5].messageLength = 22B
*.host2.app[5].sendInterval = 1ms
*.host2.app[5].startTime = 92ms
*.host2.app[5].stopTime = 100ms
*.host2.app[5].display-name = "type2_1"
*.host2.app[5].destPort = 1001
*.host3.numApps = 20
*.host3.app[0].typename = "UdpBasicApp"
*.host3.app[0].destAddresses = "host12"
*.host3.app[0].source.packetNameFormat = "%M-%m-%c"
*.host3.app[0].source.displayStringTextFormat = "sent %p pk (%l)"
*.host3.app[0].messageLength = 12B
*.host3.app[0].sendInterval = 1ms
*.host3.app[0].startTime = 2ms
*.host3.app[0].stopTime = 6ms
*.host3.app[0].display-name = "type2_4"
*.host3.app[0].destPort = 1000
*.host3.app[1].typename = "UdpBasicApp"
*.host3.app[1].destAddresses = "host12"
*.host3.app[1].source.packetNameFormat = "%M-%m-%c"
*.host3.app[1].source.displayStringTextFormat = "sent %p pk (%l)"
*.host3.app[1].messageLength = 12B
*.host3.app[1].sendInterval = 1ms
*.host3.app[1].startTime = 22ms
*.host3.app[1].stopTime = 46ms
*.host3.app[1].display-name = "type2_4"
*.host3.app[1].destPort = 1000
*.host3.app[2].typename = "UdpBasicApp"
*.host3.app[2].destAddresses = "host12"
*.host3.app[2].source.packetNameFormat = "%M-%m-%c"
*.host3.app[2].source.displayStringTextFormat = "sent %p pk (%l)"
*.host3.app[2].messageLength = 12B
*.host3.app[2].sendInterval = 1ms
*.host3.app[2].startTime = 51ms
*.host3.app[2].stopTime = 56ms
*.host3.app[2].display-name = "type2_4"
*.host3.app[2].destPort = 1000
*.host3.app[3].typename = "UdpBasicApp"
*.host3.app[3].destAddresses = "host12"
*.host3.app[3].source.packetNameFormat = "%M-%m-%c"
*.host3.app[3].source.displayStringTextFormat = "sent %p pk (%l)"
*.host3.app[3].messageLength = 12B
*.host3.app[3].sendInterval = 1ms
*.host3.app[3].startTime = 57ms
*.host3.app[3].stopTime = 74ms
*.host3.app[3].display-name = "type2_4"
*.host3.app[3].destPort = 1000
*.host3.app[4].typename = "UdpBasicApp"
*.host3.app[4].destAddresses = "host12"
*.host3.app[4].source.packetNameFormat = "%M-%m-%c"
*.host3.app[4].source.displayStringTextFormat = "sent %p pk (%l)"
*.host3.app[4].messageLength = 12B
*.host3.app[4].sendInterval = 1ms
*.host3.app[4].startTime = 75ms
*.host3.app[4].stopTime = 80ms
*.host3.app[4].display-name = "type2_4"
*.host3.app[4].destPort = 1000
*.host3.app[5].typename = "UdpBasicApp"
*.host3.app[5].destAddresses = "host12"
*.host3.app[5].source.packetNameFormat = "%M-%m-%c"
*.host3.app[5].source.displayStringTextFormat = "sent %p pk (%l)"
*.host3.app[5].messageLength = 12B
*.host3.app[5].sendInterval = 1ms
*.host3.app[5].startTime = 89ms
*.host3.app[5].stopTime = 95ms
*.host3.app[5].display-name = "type2_4"
*.host3.app[5].destPort = 1000
*.host3.app[6].typename = "UdpBasicApp"
*.host3.app[6].destAddresses = "host1"
*.host3.app[6].source.packetNameFormat = "%M-%m-%c"
*.host3.app[6].source.displayStringTextFormat = "sent %p pk (%l)"
*.host3.app[6].messageLength = 13B
*.host3.app[6].sendInterval = 1ms
*.host3.app[6].startTime = 1ms
*.host3.app[6].stopTime = 6ms
*.host3.app[6].display-name = "type2_13"
*.host3.app[6].destPort = 1000
*.host3.app[7].typename = "UdpBasicApp"
*.host3.app[7].destAddresses = "host1"
*.host3.app[7].source.packetNameFormat = "%M-%m-%c"
*.host3.app[7].source.displayStringTextFormat = "sent %p pk (%l)"
*.host3.app[7].messageLength = 13B
*.host3.app[7].sendInterval = 1ms
*.host3.app[7].startTime = 19ms
*.host3.app[7].stopTime = 42ms
*.host3.app[7].display-name = "type2_13"
*.host3.app[7].destPort = 1000
*.host3.app[8].typename = "UdpBasicApp"
*.host3.app[8].destAddresses = "host1"
*.host3.app[8].source.packetNameFormat = "%M-%m-%c"
*.host3.app[8].source.displayStringTextFormat = "sent %p pk (%l)"
*.host3.app[8].messageLength = 13B
*.host3.app[8].sendInterval = 1ms
*.host3.app[8].startTime = 59ms
*.host3.app[8].stopTime = 64ms
*.host3.app[8].display-name = "type2_13"
*.host3.app[8].destPort = 1000
*.host3.app[9].typename = "UdpBasicApp"
*.host3.app[9].destAddresses = "host1"
*.host3.app[9].source.packetNameFormat = "%M-%m-%c"
*.host3.app[9].source.displayStringTextFormat = "sent %p pk (%l)"
*.host3.app[9].messageLength = 13B
*.host3.app[9].sendInterval = 1ms
*.host3.app[9].startTime = 67ms
*.host3.app[9].stopTime = 73ms
*.host3.app[9].display-name = "type2_13"
*.host3.app[9].destPort = 1000
*.host3.app[10].typename = "UdpBasicApp"
*.host3.app[10].destAddresses = "host1"
*.host3.app[10].source.packetNameFormat = "%M-%m-%c"
*.host3.app[10].source.displayStringTextFormat = "sent %p pk (%l)"
*.host3.app[10].messageLength = 13B
*.host3.app[10].sendInterval = 1ms
*.host3.app[10].startTime = 76ms
*.host3.app[10].stopTime = 90ms
*.host3.app[10].display-name = "type2_13"
*.host3.app[10].destPort = 1000
*.host3.app[11].typename = "UdpBasicApp"
*.host3.app[11].destAddresses = "host1"
*.host3.app[11].source.packetNameFormat = "%M-%m-%c"
*.host3.app[11].source.displayStringTextFormat = "sent %p pk (%l)"
*.host3.app[11].messageLength = 13B
*.host3.app[11].sendInterval = 1ms
*.host3.app[11].startTime = 92ms
*.host3.app[11].stopTime = 100ms
*.host3.app[11].display-name = "type2_13"
*.host3.app[11].destPort = 1000
*.host3.app[12].typename = "UdpBasicApp"
*.host3.app[12].destAddresses = "host10"
*.host3.app[12].source.packetNameFormat = "%M-%m-%c"
*.host3.app[12].source.displayStringTextFormat = "sent %p pk (%l)"
*.host3.app[12].messageLength = 20B
*.host3.app[12].sendInterval = 1ms
*.host3.app[12].startTime = 2ms
*.host3.app[12].stopTime = 21ms
*.host3.app[12].display-name = "type2_14"
*.host3.app[12].destPort = 1000
*.host3.app[13].typename = "UdpBasicApp"
*.host3.app[13].destAddresses = "host10"
*.host3.app[13].source.packetNameFormat = "%M-%m-%c"
*.host3.app[13].source.displayStringTextFormat = "sent %p pk (%l)"
*.host3.app[13].messageLength = 20B
*.host3.app[13].sendInterval = 1ms
*.host3.app[13].startTime = 35ms
*.host3.app[13].stopTime = 43ms
*.host3.app[13].display-name = "type2_14"
*.host3.app[13].destPort = 1000
*.host3.app[14].typename = "UdpBasicApp"
*.host3.app[14].destAddresses = "host10"
*.host3.app[14].source.packetNameFormat = "%M-%m-%c"
*.host3.app[14].source.displayStringTextFormat = "sent %p pk (%l)"
*.host3.app[14].messageLength = 20B
*.host3.app[14].sendInterval = 1ms
*.host3.app[14].startTime = 48ms
*.host3.app[14].stopTime = 49ms
*.host3.app[14].display-name = "type2_14"
*.host3.app[14].destPort = 1000
*.host3.app[15].typename = "UdpBasicApp"
*.host3.app[15].destAddresses = "host10"
*.host3.app[15].source.packetNameFormat = "%M-%m-%c"
*.host3.app[15].source.displayStringTextFormat = "sent %p pk (%l)"
*.host3.app[15].messageLength = 20B
*.host3.app[15].sendInterval = 1ms
*.host3.app[15].startTime = 57ms
*.host3.app[15].stopTime = 61ms
*.host3.app[15].display-name = "type2_14"
*.host3.app[15].destPort = 1000
*.host3.app[16].typename = "UdpBasicApp"
*.host3.app[16].destAddresses = "host10"
*.host3.app[16].source.packetNameFormat = "%M-%m-%c"
*.host3.app[16].source.displayStringTextFormat = "sent %p pk (%l)"
*.host3.app[16].messageLength = 20B
*.host3.app[16].sendInterval = 1ms
*.host3.app[16].startTime = 69ms
*.host3.app[16].stopTime = 71ms
*.host3.app[16].display-name = "type2_14"
*.host3.app[16].destPort = 1000
*.host3.app[17].typename = "UdpBasicApp"
*.host3.app[17].destAddresses = "host10"
*.host3.app[17].source.packetNameFormat = "%M-%m-%c"
*.host3.app[17].source.displayStringTextFormat = "sent %p pk (%l)"
*.host3.app[17].messageLength = 20B
*.host3.app[17].sendInterval = 1ms
*.host3.app[17].startTime = 75ms
*.host3.app[17].stopTime = 91ms
*.host3.app[17].display-name = "type2_14"
*.host3.app[17].destPort = 1000
*.host3.app[18].typename = "UdpBasicApp"
*.host3.app[18].destAddresses = "host10"
*.host3.app[18].source.packetNameFormat = "%M-%m-%c"
*.host3.app[18].source.displayStringTextFormat = "sent %p pk (%l)"
*.host3.app[18].messageLength = 20B
*.host3.app[18].sendInterval = 1ms
*.host3.app[18].startTime = 95ms
*.host3.app[18].stopTime = 100ms
*.host3.app[18].display-name = "type2_14"
*.host3.app[18].destPort = 1000
*.host3.app[19].typename = "UdpSinkApp"
*.host3.app[19].io.localPort = 1000
*.host4.numApps = 10
*.host4.app[0].typename = "UdpSinkApp"
*.host4.app[0].io.localPort = 1000
*.host4.app[1].typename = "UdpBasicApp"
*.host4.app[1].destAddresses = "host7"
*.host4.app[1].source.packetNameFormat = "%M-%m-%c"
*.host4.app[1].source.displayStringTextFormat = "sent %p pk (%l)"
*.host4.app[1].messageLength = 22B
*.host4.app[1].sendInterval = 1ms
*.host4.app[1].startTime = 3ms
*.host4.app[1].stopTime = 11ms
*.host4.app[1].display-name = "type2_17"
*.host4.app[1].destPort = 1002
*.host4.app[2].typename = "UdpBasicApp"
*.host4.app[2].destAddresses = "host7"
*.host4.app[2].source.packetNameFormat = "%M-%m-%c"
*.host4.app[2].source.displayStringTextFormat = "sent %p pk (%l)"
*.host4.app[2].messageLength = 22B
*.host4.app[2].sendInterval = 1ms
*.host4.app[2].startTime = 17ms
*.host4.app[2].stopTime = 24ms
*.host4.app[2].display-name = "type2_17"
*.host4.app[2].destPort = 1002
*.host4.app[3].typename = "UdpBasicApp"
*.host4.app[3].destAddresses = "host7"
*.host4.app[3].source.packetNameFormat = "%M-%m-%c"
*.host4.app[3].source.displayStringTextFormat = "sent %p pk (%l)"
*.host4.app[3].messageLength = 22B
*.host4.app[3].sendInterval = 1ms
*.host4.app[3].startTime = 30ms
*.host4.app[3].stopTime = 38ms
*.host4.app[3].display-name = "type2_17"
*.host4.app[3].destPort = 1002
*.host4.app[4].typename = "UdpBasicApp"
*.host4.app[4].destAddresses = "host7"
*.host4.app[4].source.packetNameFormat = "%M-%m-%c"
*.host4.app[4].source.displayStringTextFormat = "sent %p pk (%l)"
*.host4.app[4].messageLength = 22B
*.host4.app[4].sendInterval = 1ms
*.host4.app[4].startTime = 57ms
*.host4.app[4].stopTime = 68ms
*.host4.app[4].display-name = "type2_17"
*.host4.app[4].destPort = 1002
*.host4.app[5].typename = "UdpBasicApp"
*.host4.app[5].destAddresses = "host7"
*.host4.app[5].source.packetNameFormat = "%M-%m-%c"
*.host4.app[5].source.displayStringTextFormat = "sent %p pk (%l)"
*.host4.app[5].messageLength = 22B
*.host4.app[5].sendInterval = 1ms
*.host4.app[5].startTime = 72ms
*.host4.app[5].stopTime = 74ms
*.host4.app[5].display-name = "type2_17"
*.host4.app[5].destPort = 1002
*.host4.app[6].typename = "UdpBasicApp"
*.host4.app[6].destAddresses = "host7"
*.host4.app[6].source.packetNameFormat = "%M-%m-%c"
*.host4.app[6].source.displayStringTextFormat = "sent %p pk (%l)"
*.host4.app[6].messageLength = 22B
*.host4.app[6].sendInterval = 1ms
*.host4.app[6].startTime = 82ms
*.host4.app[6].stopTime = 84ms
*.host4.app[6].display-name = "type2_17"
*.host4.app[6].destPort = 1002
*.host4.app[7].typename = "UdpBasicApp"
*.host4.app[7].destAddresses = "host7"
*.host4.app[7].source.packetNameFormat = "%M-%m-%c"
*.host4.app[7].source.displayStringTextFormat = "sent %p pk (%l)"
*.host4.app[7].messageLength = 22B
*.host4.app[7].sendInterval = 1ms
*.host4.app[7].startTime = 93ms
*.host4.app[7].stopTime = 95ms
*.host4.app[7].display-name = "type2_17"
*.host4.app[7].destPort = 1002
*.host4.app[8].typename = "UdpBasicApp"
*.host4.app[8].destAddresses = "host7"