[General]
network = TSN_multipath
sim-time-limit = 100ms
*.macForwardingTableConfigurator.typename = ""
*.*.hasStreamRedundancy = true
*.*.bridging.streamRelay.typename = "StreamRelayLayer"
*.*.bridging.streamCoder.typename = "StreamCoderLayer"
*.streamRedundancyConfigurator.typename = "StreamRedundancyConfigurator"
*.host0.eth[0].bitrate = 1000Mbps
*.switch0.eth[0].bitrate = 1000Mbps
*.switch0.eth[1].bitrate = 2200Mbps
*.switch0.eth[2].bitrate = 1300Mbps
*.switch0.eth[3].bitrate = 2200Mbps
*.switch0.eth[4].bitrate = 1400Mbps
*.switch0.eth[5].bitrate = 1700Mbps
*.switch0.eth[6].bitrate = 1900Mbps
*.switch0.eth[7].bitrate = 2300Mbps
*.switch0.eth[8].bitrate = 1600Mbps
*.switch0.eth[9].bitrate = 1700Mbps
*.switch0.eth[10].bitrate = 1600Mbps
*.switch0.eth[11].bitrate = 1200Mbps
*.switch0.eth[12].bitrate = 1800Mbps
*.switch0.eth[13].bitrate = 1800Mbps
*.switch0.eth[14].bitrate = 1900Mbps
*.switch0.eth[15].bitrate = 2300Mbps
*.switch0.eth[16].bitrate = 1700Mbps
*.switch0.eth[17].bitrate = 1900Mbps
*.switch0.eth[18].bitrate = 1800Mbps
*.switch0.eth[19].bitrate = 1600Mbps
*.switch0.eth[20].bitrate = 2200Mbps
*.switch0.eth[21].bitrate = 1700Mbps
*.switch0.eth[22].bitrate = 1400Mbps
*.switch0.eth[23].bitrate = 1200Mbps
*.switch0.eth[24].bitrate = 2300Mbps
*.switch0.eth[25].bitrate = 1400Mbps
*.host1.eth[0].bitrate = 1000Mbps
*.switch1.eth[0].bitrate = 1000Mbps
*.switch1.eth[1].bitrate = 2200Mbps
*.switch1.eth[2].bitrate = 2100Mbps
*.switch1.eth[3].bitrate = 1800Mbps
*.switch1.eth[4].bitrate = 1200Mbps
*.switch1.eth[5].bitrate = 1400Mbps
*.switch1.eth[6].bitrate = 2200Mbps
*.switch1.eth[7].bitrate = 2400Mbps
*.switch1.eth[8].bitrate = 2300Mbps
*.switch1.eth[9].bitrate = 1500Mbps
*.switch1.eth[10].bitrate = 2200Mbps
*.switch1.eth[11].bitrate = 1200Mbps
*.switch1.eth[12].bitrate = 1800Mbps
*.host2.eth[0].bitrate = 1000Mbps
*.switch2.eth[0].bitrate = 1000Mbps
*.switch2.eth[1].bitrate = 1300Mbps
*.switch2.eth[2].bitrate = 2100Mbps
*.switch2.eth[3].bitrate = 1700Mbps
*.switch2.eth[4].bitrate = 1600Mbps
*.switch2.eth[5].bitrate = 1400Mbps
*.switch2.eth[6].bitrate = 2200Mbps
*.switch2.eth[7].bitrate = 1200Mbps
*.switch2.eth[8].bitrate = 1900Mbps
*.switch2.eth[9].bitrate = 1600Mbps
*.switch2.eth[10].bitrate = 2300Mbps
*.host3.eth[0].bitrate = 1000Mbps
*.switch3.eth[0].bitrate = 1000Mbps
*.switch3.eth[1].bitrate = 1900Mbps
*.switch3.eth[2].bitrate = 2400Mbps
*.switch3.eth[3].bitrate = 1200Mbps
*.switch3.eth[4].bitrate = 1400Mbps
*.switch3.eth[5].bitrate = 2300Mbps
*.switch3.eth[6].bitrate = 2200Mbps
*.switch3.eth[7].bitrate = 2000Mbps
*.switch3.eth[8].bitrate = 1800Mbps
*.switch3.eth[9].bitrate = 1200Mbps
*.switch3.eth[10].bitrate = 1500Mbps
*.switch3.eth[11].bitrate = 2400Mbps
*.switch3.eth[12].bitrate = 1500Mbps
*.switch3.eth[13].bitrate = 2200Mbps
*.switch3.eth[14].bitrate = 2400Mbps
*.switch3.eth[15].bitrate = 2000Mbps
*.switch3.eth[16].bitrate = 1400Mbps
*.host4.eth[0].bitrate = 1000Mbps
*.switch4.eth[0].bitrate = 1000Mbps
*.switch4.eth[1].bitrate = 2200Mbps
*.switch4.eth[2].bitrate = 1800Mbps
*.switch4.eth[3].bitrate = 1600Mbps
*.switch4.eth[4].bitrate = 2300Mbps
*.switch4.eth[5].bitrate = 1900Mbps
*.switch4.eth[6].bitrate = 1700Mbps
*.switch4.eth[7].bitrate = 2000Mbps
*.switch4.eth[8].bitrate = 1400Mbps
*.switch4.eth[9].bitrate = 2300Mbps
*.switch4.eth[10].bitrate = 1600Mbps
*.switch4.eth[11].bitrate = 1500Mbps
*.switch4.eth[12].bitrate = 1300Mbps
*.switch4.eth[13].bitrate = 1300Mbps
*.switch4.eth[14].bitrate = 1500Mbps
*.host5.eth[0].bitrate = 1000Mbps
*.switch5.eth[0].bitrate = 1000Mbps
*.switch5.eth[1].bitrate = 2400Mbps
*.switch5.eth[2].bitrate = 1300Mbps
*.switch5.eth[3].bitrate = 2000Mbps
*.switch5.eth[4].bitrate = 1300Mbps
*.switch5.eth[5].bitrate = 1600Mbps
*.switch5.eth[6].bitrate = 2200Mbps
*.switch5.eth[7].bitrate = 1200Mbps
*.switch5.eth[8].bitrate = 1900Mbps
*.switch5.eth[9].bitrate = 2000Mbps
*.switch5.eth[10].bitrate = 1300Mbps
*.switch5.eth[11].bitrate = 2100Mbps
*.switch5.eth[12].bitrate = 2100Mbps
*.switch5.eth[13].bitrate = 1900Mbps
*.switch5.eth[14].bitrate = 1200Mbps
*.host6.eth[0].bitrate = 1000Mbps
*.switch6.eth[0].bitrate = 1000Mbps
*.switch6.eth[1].bitrate = 1400Mbps
*.switch6.eth[2].bitrate = 1200Mbps
*.switch6.eth[3].bitrate = 2300Mbps
*.switch6.eth[4].bitrate = 2400Mbps
*.switch6.eth[5].bitrate = 1800Mbps
*.switch6.eth[6].bitrate = 2300Mbps
*.switch6.eth[7].bitrate = 2200Mbps
*.switch6.eth[8].bitrate = 2400Mbps
*.switch6.eth[9].bitrate = 2300Mbps
*.switch6.eth[10].bitrate = 2200Mbps
*.switch6.eth[11].bitrate = 2000Mbps
*.switch6.eth[12].bitrate = 2000Mbps
*.switch6.eth[13].bitrate = 1400Mbps
*.switch6.eth[14].bitrate = 1600Mbps
*.switch6.eth[15].bitrate = 2400Mbps
*.switch6.eth[16].bitrate = 2300Mbps
*.switch6.eth[17].bitrate = 1800Mbps
*.switch6.eth[18].bitrate = 1900Mbps
*.switch6.eth[19].bitrate = 2200Mbps
*.switch6.eth[20].bitrate = 1500Mbps
*.switch6.eth[21].bitrate = 1700Mbps
*.switch6.eth[22].bitrate = 1200Mbps
*.switch6.eth[23].bitrate = 2000Mbps
*.switch6.eth[24].bitrate = 1200Mbps
*.switch6.eth[25].bitrate = 1400Mbps
*.switch6.eth[26].bitrate = 1200Mbps
*.switch6.eth[27].bitrate = 1900Mbps
*.host7.eth[0].bitrate = 1000Mbps
*.switch7.eth[0].bitrate = 1000Mbps
*.switch7.eth[1].bitrate = 1700Mbps
*.switch7.eth[2].bitrate = 1400Mbps
*.switch7.eth[3].bitrate = 1600Mbps
*.switch7.eth[4].bitrate = 1200Mbps
*.switch7.eth[5].bitrate = 1500Mbps
*.switch7.eth[6].bitrate = 1600Mbps
*.switch7.eth[7].bitrate = 1200Mbps
*.switch7.eth[8].bitrate = 1500Mbps
*.switch7.eth[9].bitrate = 2200Mbps
*.switch7.eth[10].bitrate = 2000Mbps
*.switch7.eth[11].bitrate = 1800Mbps
*.switch7.eth[12].bitrate = 2300Mbps
*.switch7.eth[13].bitrate = 1400Mbps
*.switch7.eth[14].bitrate = 1900Mbps
*.switch7.eth[15].bitrate = 2100Mbps
*.switch7.eth[16].bitrate = 1500Mbps
*.switch7.eth[17].bitrate = 1200Mbps
*.switch7.eth[18].bitrate = 1400Mbps
*.switch7.eth[19].bitrate = 1800Mbps
*.switch7.eth[20].bitrate = 2200Mbps
*.switch7.eth[21].bitrate = 1700Mbps
*.switch7.eth[22].bitrate = 1300Mbps
*.switch7.eth[23].bitrate = 1300Mbps
*.switch7.eth[24].bitrate = 2200Mbps
*.switch7.eth[25].bitrate = 2400Mbps
*.host8.eth[0].bitrate = 1000Mbps
*.switch8.eth[0].bitrate = 1000Mbps
*.switch8.eth[1].bitrate = 1900Mbps
*.switch8.eth[2].bitrate = 2300Mbps
*.switch8.eth[3].bitrate = 2200Mbps
*.switch8.eth[4].bitrate = 1500Mbps
*.switch8.eth[5].bitrate = 1700Mbps
*.switch8.eth[6].bitrate = 1800Mbps
*.switch8.eth[7].bitrate = 1600Mbps
*.switch8.eth[8].bitrate = 2300Mbps
*.switch8.eth[9].bitrate = 1700Mbps
*.switch8.eth[10].bitrate = 1400Mbps
*.switch8.eth[11].bitrate = 2000Mbps
*.switch8.eth[12].bitrate = 1300Mbps
*.switch8.eth[13].bitrate = 2100Mbps
*.switch8.eth[14].bitrate = 1600Mbps
*.switch8.eth[15].bitrate = 1800Mbps
*.switch8.eth[16].bitrate = 1200Mbps
*.host9.eth[0].bitrate = 1000Mbps
*.switch9.eth[0].bitrate = 1000Mbps
*.switch9.eth[1].bitrate = 1300Mbps
*.switch9.eth[2].bitrate = 2000Mbps
*.switch9.eth[3].bitrate = 2200Mbps
*.switch9.eth[4].bitrate = 1200Mbps
*.switch9.eth[5].bitrate = 1500Mbps
*.switch9.eth[6].bitrate = 1200Mbps
*.switch9.eth[7].bitrate = 1200Mbps
*.switch9.eth[8].bitrate = 1700Mbps
*.switch9.eth[9].bitrate = 2200Mbps
*.switch9.eth[10].bitrate = 1200Mbps
*.host10.eth[0].bitrate = 1000Mbps
*.switch10.eth[0].bitrate = 1000Mbps
*.switch10.eth[1].bitrate = 2300Mbps
*.switch10.eth[2].bitrate = 1200Mbps
*.switch10.eth[3].bitrate = 2200Mbps
*.switch10.eth[4].bitrate = 2000Mbps
*.switch10.eth[5].bitrate = 2000Mbps
*.switch10.eth[6].bitrate = 1600Mbps
*.switch10.eth[7].bitrate = 1700Mbps
*.switch10.eth[8].bitrate = 1500Mbps
*.switch10.eth[9].bitrate = 1900Mbps
*.switch10.eth[10].bitrate = 1300Mbps
*.switch10.eth[11].bitrate = 1900Mbps
*.switch10.eth[12].bitrate = 2200Mbps
*.switch10.eth[13].bitrate = 2100Mbps
*.switch10.eth[14].bitrate = 1200Mbps
*.switch10.eth[15].bitrate = 1200Mbps
*.switch10.eth[16].bitrate = 1200Mbps
*.switch10.eth[17].bitrate = 1300Mbps
*.switch10.eth[18].bitrate = 2200Mbps
*.switch10.eth[19].bitrate = 1900Mbps
*.switch10.eth[20].bitrate = 1300Mbps
*.switch10.eth[21].bitrate = 2000Mbps
*.switch10.eth[22].bitrate = 2200Mbps
*.switch10.eth[23].bitrate = 2400Mbps
*.switch10.eth[24].bitrate = 1500Mbps
*.switch10.eth[25].bitrate = 1700Mbps
*.host11.eth[0].bitrate = 1000Mbps
*.switch11.eth[0].bitrate = 1000Mbps
*.switch11.eth[1].bitrate = 1600Mbps
*.switch11.eth[2].bitrate = 2000Mbps
*.switch11.eth[3].bitrate = 1400Mbps
*.switch11.eth[4].bitrate = 1800Mbps
*.switch11.eth[5].bitrate = 2200Mbps
*.switch11.eth[6].bitrate = 1700Mbps
*.switch11.eth[7].bitrate = 1700Mbps
*.switch11.eth[8].bitrate = 2000Mbps
*.switch11.eth[9].bitrate = 1300Mbps
*.switch11.eth[10].bitrate = 1400Mbps
*.switch11.eth[11].bitrate = 1200Mbps
*.switch11.eth[12].bitrate = 2100Mbps
*.switch11.eth[13].bitrate = 2300Mbps
*.switch11.eth[14].bitrate = 2100Mbps
*.host12.eth[0].bitrate = 1000Mbps
*.switch12.eth[0].bitrate = 1000Mbps
*.switch12.eth[1].bitrate = 1700Mbps
*.switch12.eth[2].bitrate = 1400Mbps
*.switch12.eth[3].bitrate = 2000Mbps
*.switch12.eth[4].bitrate = 1300Mbps
*.switch12.eth[5].bitrate = 2300Mbps
*.switch12.eth[6].bitrate = 2300Mbps
*.switch12.eth[7].bitrate = 1500Mbps
*.switch12.eth[8].bitrate = 1200Mbps
*.switch12.eth[9].bitrate = 1500Mbps
*.switch12.eth[10].bitrate = 1200Mbps
*.switch12.eth[11].bitrate = 2000Mbps
*.switch12.eth[12].bitrate = 1400Mbps
*.host13.eth[0].bitrate = 1000Mbps
*.switch13.eth[0].bitrate = 1000Mbps
*.switch13.eth[1].bitrate = 1600Mbps
*.switch13.eth[2].bitrate = 1900Mbps
*.switch13.eth[3].bitrate = 1600Mbps
*.switch13.eth[4].bitrate = 1400Mbps
*.switch13.eth[5].bitrate = 1200Mbps
*.switch13.eth[6].bitrate = 2000Mbps
*.switch13.eth[7].bitrate = 2100Mbps
*.switch13.eth[8].bitrate = 1200Mbps
*.switch13.eth[9].bitrate = 1900Mbps
*.switch13.eth[10].bitrate = 2300Mbps
*.host14.eth[0].bitrate = 1000Mbps
*.switch14.eth[0].bitrate = 1000Mbps
*.switch14.eth[1].bitrate = 1200Mbps
*.switch14.eth[2].bitrate = 1800Mbps
*.switch14.eth[3].bitrate = 1700Mbps
*.switch14.eth[4].bitrate = 2400Mbps
*.switch14.eth[5].bitrate = 1900Mbps
*.switch14.eth[6].bitrate = 1700Mbps
*.switch14.eth[7].bitrate = 1500Mbps
*.switch14.eth[8].bitrate = 2200Mbps
*.switch14.eth[9].bitrate = 2400Mbps
*.switch14.eth[10].bitrate = 2000Mbps
*.switch14.eth[11].bitrate = 1200Mbps
*.switch14.eth[12].bitrate = 1900Mbps
*.switch14.eth[13].bitrate = 1500Mbps
*.switch14.eth[14].bitrate = 2400Mbps
*.switch14.eth[15].bitrate = 2300Mbps
*.host15.eth[0].bitrate = 1000Mbps
*.switch15.eth[0].bitrate = 1000Mbps
*.switch15.eth[1].bitrate = 2300Mbps
*.switch15.eth[2].bitrate = 1400Mbps
*.switch15.eth[3].bitrate = 1200Mbps
*.switch15.eth[4].bitrate = 1300Mbps
*.switch15.eth[5].bitrate = 1300Mbps
*.switch15.eth[6].bitrate = 1400Mbps
*.switch15.eth[7].bitrate = 1200Mbps
*.switch15.eth[8].bitrate = 2000Mbps
*.switch15.eth[9].bitrate = 1300Mbps
*.switch15.eth[10].bitrate = 1200Mbps
*.switch15.eth[11].bitrate = 1300Mbps
*.switch15.eth[12].bitrate = 1600Mbps
*.switch15.eth[13].bitrate = 2200Mbps
*.switch15.eth[14].bitrate = 2100Mbps
*.switch15.eth[15].bitrate = 1900Mbps
*.switch15.eth[16].bitrate = 1900Mbps
*.switch15.eth[17].bitrate = 2400Mbps
*.switch15.eth[18].bitrate = 1300Mbps
*.switch15.eth[19].bitrate = 2000Mbps
*.switch15.eth[20].bitrate = 1600Mbps
*.host16.eth[0].bitrate = 1000Mbps
*.switch16.eth[0].bitrate = 1000Mbps
*.switch16.eth[1].bitrate = 1800Mbps
*.switch16.eth[2].bitrate = 2200Mbps
*.switch16.eth[3].bitrate = 1400Mbps
*.switch16.eth[4].bitrate = 1200Mbps
*.switch16.eth[5].bitrate = 1800Mbps
*.switch16.eth[6].bitrate = 2100Mbps
*.switch16.eth[7].bitrate = 2000Mbps
*.switch16.eth[8].bitrate = 2200Mbps
*.switch16.eth[9].bitrate = 1200Mbps
*.switch16.eth[10].bitrate = 1600Mbps
*.switch16.eth[11].bitrate = 2100Mbps
*.switch16.eth[12].bitrate = 1400Mbps
*.switch16.eth[13].bitrate = 1300Mbps
*.switch16.eth[14].bitrate = 2400Mbps
*.switch16.eth[15].bitrate = 1200Mbps
*.switch16.eth[16].bitrate = 1200Mbps
*.switch16.eth[17].bitrate = 1500Mbps
*.switch16.eth[18].bitrate = 1400Mbps
*.switch16.eth[19].bitrate = 1400Mbps
*.switch16.eth[20].bitrate = 1600Mbps
*.switch16.eth[21].bitrate = 1600Mbps
*.host17.eth[0].bitrate = 1000Mbps
*.switch17.eth[0].bitrate = 1000Mbps
*.switch17.eth[1].bitrate = 1800Mbps
*.switch17.eth[2].bitrate = 1500Mbps
*.switch17.eth[3].bitrate = 1900Mbps
*.switch17.eth[4].bitrate = 1500Mbps
*.switch17.eth[5].bitrate = 1900Mbps
*.switch17.eth[6].bitrate = 1400Mbps
*.switch17.eth[7].bitrate = 2100Mbps
*.switch17.eth[8].bitrate = 1500Mbps
*.switch17.eth[9].bitrate = 2000Mbps
*.switch17.eth[10].bitrate = 2000Mbps
*.switch17.eth[11].bitrate = 2400Mbps
*.host18.eth[0].bitrate = 1000Mbps
*.switch18.eth[0].bitrate = 1000Mbps
*.switch18.eth[1].bitrate = 1900Mbps
*.switch18.eth[2].bitrate = 2000Mbps
*.switch18.eth[3].bitrate = 1200Mbps
*.switch18.eth[4].bitrate = 1900Mbps
*.switch18.eth[5].bitrate = 2100Mbps
*.switch18.eth[6].bitrate = 2400Mbps
*.switch18.eth[7].bitrate = 1400Mbps
*.switch18.eth[8].bitrate = 2300Mbps
*.switch18.eth[9].bitrate = 1400Mbps
*.switch18.eth[10].bitrate = 1300Mbps
*.switch18.eth[11].bitrate = 1900Mbps
*.switch18.eth[12].bitrate = 1200Mbps
*.switch18.eth[13].bitrate = 2200Mbps
*.switch18.eth[14].bitrate = 1800Mbps
*.switch18.eth[15].bitrate = 2200Mbps
*.switch18.eth[16].bitrate = 2300Mbps
*.switch18.eth[17].bitrate = 1900Mbps
*.switch18.eth[18].bitrate = 2400Mbps
*.switch18.eth[19].bitrate = 2000Mbps
*.switch18.eth[20].bitrate = 1600Mbps
*.switch18.eth[21].bitrate = 2000Mbps
*.switch18.eth[22].bitrate = 2300Mbps
*.host19.eth[0].bitrate = 1000Mbps
*.switch19.eth[0].bitrate = 1000Mbps
*.switch19.eth[1].bitrate = 2300Mbps
*.switch19.eth[2].bitrate = 1400Mbps
*.switch19.eth[3].bitrate = 1600Mbps
*.switch19.eth[4].bitrate = 2200Mbps
*.switch19.eth[5].bitrate = 1400Mbps
*.switch19.eth[6].bitrate = 1300Mbps
*.switch19.eth[7].bitrate = 1300Mbps
*.switch19.eth[8].bitrate = 1400Mbps
*.switch19.eth[9].bitrate = 1300Mbps
*.switch19.eth[10].bitrate = 1400Mbps
*.switch19.eth[11].bitrate = 1800Mbps
*.switch19.eth[12].bitrate = 2300Mbps
*.switch19.eth[13].bitrate = 1500Mbps
*.switch19.eth[14].bitrate = 1200Mbps
*.switch19.eth[15].bitrate = 1900Mbps
*.switch19.eth[16].bitrate = 2400Mbps
*.switch19.eth[17].bitrate = 1200Mbps
*.switch19.eth[18].bitrate = 1200Mbps
*.switch19.eth[19].bitrate = 1700Mbps
*.switch19.eth[20].bitrate = 2100Mbps
*.switch19.eth[21].bitrate = 1400Mbps
*.switch19.eth[22].bitrate = 2300Mbps
*.switch19.eth[23].bitrate = 2300Mbps
*.switch19.eth[24].bitrate = 1600Mbps
*.switch19.eth[25].bitrate = 1600Mbps
*.switch19.eth[26].bitrate = 2400Mbps
*.switch19.eth[27].bitrate = 2300Mbps
*.host0.numApps = 9
*.host0.app[0].typename = "UdpSinkApp"
*.host0.app[0].io.localPort = 1000
*.host0.app[1].typename = "UdpBasicApp"
*.host0.app[1].destAddresses = "host2"
*.host0.app[1].source.packetNameFormat = "%M-%m-%c"
*.host0.app[1].source.displayStringTextFormat = "sent %p pk (%l)"
*.host0.app[1].messageLength = 16B
*.host0.app[1].sendInterval = 1ms
*.host0.app[1].startTime = 0ms
*.host0.app[1].stopTime = 23ms
*.host0.app[1].display-name = "type2_0"
*.host0.app[1].destPort = 1001
*.host0.app[2].typename = "UdpBasicApp"
*.host0.app[2].destAddresses = "host2"
*.host0.app[2].source.packetNameFormat = "%M-%m-%c"
*.host0.app[2].source.displayStringTextFormat = "sent %p pk (%l)"
*.host0.app[2].messageLength = 16B
*.host0.app[2].sendInterval = 1ms
*.host0.app[2].startTime = 41ms
*.host0.app[2].stopTime = 44ms
*.host0.app[2].display-name = "type2_0"
*.host0.app[2].destPort = 1001
*.host0.app[3].typename = "UdpBasicApp"
*.host0.app[3].destAddresses = "host2"
*.host0.app[3].source.packetNameFormat = "%M-%m-%c"
*.host0.app[3].source.displayStringTextFormat = "sent %p pk (%l)"
*.host0.app[3].messageLength = 16B
*.host0.app[3].sendInterval = 1ms
*.host0.app[3].startTime = 50ms
*.host0.app[3].stopTime = 54ms
*.host0.app[3].display-name = "type2_0"
*.host0.app[3].destPort = 1001
*.host0.app[4].typename = "UdpBasicApp"
*.host0.app[4].destAddresses = "host2"
*.host0.app[4].source.packetNameFormat = "%M-%m-%c"
*.host0.app[4].source.displayStringTextFormat = "sent %p pk (%l)"
*.host0.app[4].messageLength = 16B
*.host0.app[4].sendInterval = 1ms
*.host0.app[4].startTime = 55ms
*.host0.app[4].stopTime = 58ms
*.host0.app[4].display-name = "type2_0"
*.host0.app[4].destPort = 1001
*.host0.app[5].typename = "UdpBasicApp"
*.host0.app[5].destAddresses = "host2"
*.host0.app[5].source.packetNameFormat = "%M-%m-%c"
*.host0.app[5].source.displayStringTextFormat = "sent %p pk (%l)"
*.host0.app[5].messageLength = 16B
*.host0.app[5].sendInterval = 1ms
*.host0.app[5].startTime = 60ms
*.host0.app[5].stopTime = 63ms
*.host0.app[5].display-name = "type2_0"
*.host0.app[5].destPort = 1001
*.host0.app[6].typename = "UdpBasicApp"
*.host0.app[6].destAddresses = "host2"
*.host0.app[6].source.packetNameFormat = "%M-%m-%c"
*.host0.app[6].source.displayStringTextFormat = "sent %p pk (%l)"
*.host0.app[6].messageLength = 16B
*.host0.app[6].sendInterval = 1ms
*.host0.app[6].startTime = 74ms
*.host0.app[6].stopTime = 79ms
*.host0.app[6].display-name = "type2_0"
*.host0.app[6].destPort = 1001
*.host0.app[7].typename = "UdpSinkApp"
*.host0.app[7].io.localPort = 1001
*.host0.app[8].typename = "UdpSinkApp"
*.host0.app[8].io.localPort = 1002
*.host1.numApps = 6
*.host1.app[0].typename = "UdpSourceApp"
*.host1.app[0].io.destAddress = "host5"
*.host1.app[0].source.packetNameFormat = "%M-%m-%c"
*.host1.app[0].source.displayStringTextFormat = "sent %p pk (%l)"
*.host1.app[0].source.packetLength = 16B
*.host1.app[0].source.productionInterval = 1ms
*.host1.app[0].display-name = "type1_2"
*.host1.app[0].io.destPort = 1000
*.host1.app[1].typename = "UdpSourceApp"
*.host1.app[1].io.destAddress = "host4"
*.host1.app[1].source.packetNameFormat = "%M-%m-%c"
*.host1.app[1].source.displayStringTextFormat = "sent %p pk (%l)"
*.host1.app[1].source.packetLength = 22B
*.host1.app[1].source.productionInterval = 1ms
*.host1.app[1].display-name = "type1_4"
*.host1.app[1].io.destPort = 1000
*.host1.app[2].typename = "UdpSinkApp"
*.host1.app[2].io.localPort = 1000
*.host1.app[3].typename = "UdpSinkApp"
*.host1.app[3].io.localPort = 1001
*.host1.app[4].typename = "UdpSourceApp"
*.host1.app[4].io.destAddress = "host0"
*.host1.app[4].source.packetNameFormat = "%M-%m-%c"
*.host1.app[4].source.displayStringTextFormat = "sent %p pk (%l)"
*.host1.app[4].source.packetLength = 14B
*.host1.app[4].source.productionInterval = 1ms
*.host1.app[4].display-name = "type1_11"
*.host1.app[4].io.destPort = 1000
*.host1.app[5].typename = "UdpSourceApp"
*.host1.app[5].io.destAddress = "host9"
*.host1.app[5].source.packetNameFormat = "%M-%m-%c"
*.host1.app[5].source.displayStringTextFormat = "sent %p pk (%l)"
*.host1.app[5].source.packetLength = 24B
*.host1.app[5].source.productionInterval = 1ms
*.host1.app[5].display-name = "type1_12"
*.host1.app[5].io.destPort = 1000
*.host2.numApps = 3
*.host2.app[0].typename = "UdpSinkApp"
*.host2.app[0].io.localPort = 1000
*.host2.app[1].typename = "UdpSinkApp"
*.host2.app[1].io.localPort = 1001
*.host2.app[2].typename = "UdpSinkApp"
*.host2.app[2].io.localPort = 1002
*.host3.numApps = 6
*.host3.app[0].typename = "UdpSinkApp"
*.host3.app[0].io.localPort = 1000
*.host3.app[1].typename = "UdpBasicApp"
*.host3.app[1].destAddresses = "host18"
*.host3.app[1].source.packetNameFormat = "%M-%m-%c"
*.host3.app[1].source.displayStringTextFormat = "sent %p pk (%l)"
*.host3.app[1].messageLength = 13B
*.host3.app[1].sendInterval = 1ms
*.host3.app[1].startTime = 6ms
*.host3.app[1].stopTime = 7ms
*.host3.app[1].display-name = "type2_3"
*.host3.app[1].destPort = 1000
*.host3.app[2].typename = "UdpBasicApp"
*.host3.app[2].destAddresses = "host18"
*.host3.app[2].source.packetNameFormat = "%M-%m-%c"
*.host3.app[2].source.displayStringTextFormat = "sent %p pk (%l)"
*.host3.app[2].messageLength = 13B
*.host3.app[2].sendInterval = 1ms
*.host3.app[2].startTime = 29ms
*.host3.app[2].stopTime = 35ms
*.host3.app[2].display-name = "type2_3"
*.host3.app[2].destPort = 1000
*.host3.app[3].typename = "UdpBasicApp"
*.host3.app[3].destAddresses = "host18"
*.host3.app[3].source.packetNameFormat = "%M-%m-%c"
*.host3.app[3].source.displayStringTextFormat = "sent %p pk (%l)"
*.host3.app[3].messageLength = 13B
*.host3.app[3].sendInterval = 1ms
*.host3.app[3].startTime = 70ms
*.host3.app[3].stopTime = 93ms
*.host3.app[3].display-name = "type2_3"
*.host3.app[3].destPort = 1000
*.host3.app[4].typename = "UdpSinkApp"
*.host3.app[4].io.localPort = 1001
*.host3.app[5].typename = "UdpSinkApp"
*.host3.app[5].io.localPort = 1002
*.host4.numApps = 7
*.host4.app[0].typename = "UdpSinkApp"
*.host4.app[0].io.localPort = 1000
*.host4.app[1].typename = "UdpSinkApp"
*.host4.app[1].io.localPort = 1001
*.host4.app[2].typename = "UdpBasicApp"
*.host4.app[2].destAddresses = "host7"
*.host4.app[2].source.packetNameFormat = "%M-%m-%c"
*.host4.app[2].source.displayStringTextFormat = "sent %p pk (%l)"
*.host4.app[2].messageLength = 13B
*.host4.app[2].sendInterval = 1ms
*.host4.app[2].startTime = 2ms
*.host4.app[2].stopTime = 3ms
*.host4.app[2].display-name = "type2_13"
*.host4.app[2].destPort = 1001
*.host4.app[3].typename = "UdpBasicApp"
*.host4.app[3].destAddresses = "host7"
*.host4.app[3].source.packetNameFormat = "%M-%m-%c"
*.host4.app[3].source.displayStringTextFormat = "sent %p pk (%l)"
*.host4.app[3].messageLength = 13B
*.host4.app[3].sendInterval = 1ms
*.host4.app[3].startTime = 22ms
*.host4.app[3].stopTime = 30ms
*.host4.app[3].display-name = "type2_13"
*.host4.app[3].destPort = 1001
*.host4.app[4].typename = "UdpBasicApp"
*.host4.app[4].destAddresses = "host7"
*.host4.app[4].source.packetNameFormat = "%M-%m-%c"
*.host4.app[4].source.displayStringTextFormat = "sent %p pk (%l)"
*.host4.app[4].messageLength = 13B
*.host4.app[4].sendInterval = 1ms
*.host4.app[4].startTime = 33ms
*.host4.app[4].stopTime = 40ms
*.host4.app[4].display-name = "type2_13"
*.host4.app[4].destPort = 1001
*.host4.app[5].typename = "UdpBasicApp"
*.host4.app[5].destAddresses = "host7"
*.host4.app[5].source.packetNameFormat = "%M-%m-%c"
*.host4.app[5].source.displayStringTextFormat = "sent %p pk (%l)"
*.host4.app[5].messageLength = 13B
*.host4.app[5].sendInterval = 1ms
*.host4.app[5].startTime = 46ms
*.host4.app[5].stopTime = 48ms
*.host4.app[5].display-name = "type2_13"
*.host4.app[5].destPort = 1001
*.host4.app[6].typename = "UdpBasicApp"
*.host4.app[6].destAddresses = "host7"
*.host4.app[6].source.packetNameFormat = "%M-%m-%c"
*.host4.app[6].source.displayStringTextFormat = "sent %p pk (%l)"
*.host4.app[6].messageLength = 13B
*.host4.app[6].sendInterval = 1ms
*.host4.app[6].startTime = 56ms
*.host4.app[6].stopTime = 99ms
*.host4.app[6].display-name = "type2_13"
*.host4.app[6].destPort = 1001
*.host5.numApps = 4
*.host5.app[0].typename = "UdpSinkApp"
*.host5.app[0].io.localPort = 1000
*.host5.app[1].typename = "UdpBasicApp"
*.host5.app[1].destAddresses = "host2"
*.host5.app[1].source.packetNameFormat = "%M-%m-%c"
*.host5.app[1].source.displayStringTextFormat = "sent %p pk (%l)"
*.host5.app[1].messageLength = 15B
*.host5.app[1].sendInterval = 1ms
*.host5.app[1].startTime = 42ms
*.host5.app[1].stopTime = 52ms
*.host5.app[1].display-name = "type2_19"
*.host5.app[1].destPort = 1002
*.host5.app[2].typename = "UdpBasicApp"
*.host5.app[2].destAddresses = "host2"
*.host5.app[2].source.packetNameFormat = "%M-%m-%c"
*.host5.app[2].source.displayStringTextFormat = "sent %p pk (%l)"
*.host5.app[2].messageLength = 15B
*.host5.app[2].sendInterval = 1ms
*.host5.app[2].startTime = 54ms
*.host5.app[2].stopTime = 71ms
*.host5.app[2].display-name = "type2_19"
*.host5.app[2].destPort = 1002
*.host5.app[3].typename = "UdpBasicApp"
*.host5.app[3].destAddresses = "host2"
*.host5.app[3].source.packetNameFormat = "%M-%m-%c"
*.host5.app[3].source.displayStringTextFormat = "sent %p pk (%l)"
*.host5.app[3].messageLength = 15B
*.host5.app[3].sendInterval = 1ms
*.host5.app[3].startTime = 85ms
*.host5.app[3].stopTime = 86ms
*.host5.app[3].display-name = "type2_19"
*.host5.app[3].destPort = 1002
*.host6.numApps = 19
*.host6.app[0].typename = "UdpSinkApp"
*.host6.app[0].io.localPort = 1000
*.host6.app[1].typename = "UdpSourceApp"
*.host6.app[1].io.destAddress = "host10"
*.host6.app[1].source.packetNameFormat = "%M-%m-%c"
*.host6.app[1].source.displayStringTextFormat = "sent %p pk (%l)"
*.host6.app[1].source.packetLength = 18B
*.host6.app[1].source.productionInterval = 1ms
*.host6.app[1].display-name = "type1_15"
*.host6.app[1].io.destPort = 1000
*.host6.app[2].typename = "UdpBasicApp"
*.host6.app[2].destAddresses = "host11"
*.host6.app[2].source.packetNameFormat = "%M-%m-%c"
*.host6.app[2].source.displayStringTextFormat = "sent %p pk (%l)"
*.host6.app[2].messageLength = 12B
*.host6.app[2].sendInterval = 1ms
*.host6.app[2].startTime = 10ms
*.host6.app[2].stopTime = 16ms
*.host6.app[2].display-name = "type2_8"
*.host6.app[2].destPort = 1001
*.host6.app[3].typename = "UdpBasicApp"
*.host6.app[3].destAddresses = "host11"
*.host6.app[3].source.packetNameFormat = "%M-%m-%c"
*.host6.app[3].source.displayStringTextFormat = "sent %p pk (%l)"
*.host6.app[3].messageLength = 12B
*.host6.app[3].sendInterval = 1ms
*.host6.app[3].startTime = 18ms
*.host6.app[3].stopTime = 30ms
*.host6.app[3].display-name = "type2_8"
*.host6.app[3].destPort = 1001
*.host6.app[4].typename = "UdpBasicApp"
*.host6.app[4].destAddresses = "host11"
*.host6.app[4].source.packetNameFormat = "%M-%m-%c"
*.host6.app[4].source.displayStringTextFormat = "sent %p pk (%l)"
*.host6.app[4].messageLength = 12B
*.host6.app[4].sendInterval = 1ms
*.host6.app[4].startTime = 32ms
*.host6.app[4].stopTime = 34ms
*.host6.app[4].display-name = "type2_8"
*.host6.app[4].destPort = 1001
*.host6.app[5].typename = "UdpBasicApp"
*.host6.app[5].destAddresses = "host11"
*.host6.app[5].source.packetNameFormat = "%M-%m-%c"
*.host6.app[5].source.displayStringTextFormat = "sent %p pk (%l)"
*.host6.app[5].messageLength = 12B
*.host6.app[5].sendInterval = 1ms
*.host6.app[5].startTime = 46ms
*.host6.app[5].stopTime = 55ms
*.host6.app[5].display-name = "type2_8"
*.host6.app[5].destPort = 1001
*.host6.app[6].typename = "UdpBasicApp"
*.host6.app[6].destAddresses = "host11"
*.host6.app[6].source.packetNameFormat = "%M-%m-%c"
*.host6.app[6].source.displayStringTextFormat = "sent %p pk (%l)"
*.host6.app[6].messageLength = 12B
*.host6.app[6].sendInterval = 1ms
*.host6.app[6].startTime = 64ms
*.host6.app[6].stopTime = 69ms
*.host6.app[6].display-name = "type2_8"
*.host6.app[6].destPort = 1001
*.host6.app[7].typename = "UdpBasicApp"
*.host6.app[7].destAddresses = "host11"
*.host6.app[7].source.packetNameFormat = "%M-%m-%c"
*.host6.app[7].source.displayStringTextFormat = "sent %p pk (%l)"
*.host6.app[7].messageLength = 12B
*.host6.app[7].sendInterval = 1ms
*.host6.app[7].startTime = 81ms
*.host6.app[7].stopTime = 100ms
*.host6.app[7].display-name = "type2_8"
*.host6.app[7].destPort = 1001
*.host6.app[8].typename = "UdpSinkApp"
*.host6.app[8].io.localPort = 1001
*.host6.app[9].typename = "UdpBasicApp"
*.host6.app[9].destAddresses = "host16"
*.host6.app[9].source.packetNameFormat = "%M-%m-%c"
*.host6.app[9].source.displayStringTextFormat = "sent %p pk (%l)"
*.host6.app[9].messageLength = 14B
*.host6.app[9].sendInterval = 1ms
*.host6.app[9].startTime = 5ms
*.host6.app[9].stopTime = 17ms
*.host6.app[9].display-name = "type2_16"
*.host6.app[9].destPort = 1000
*.host6.app[10].typename = "UdpBasicApp"
*.host6.app[10].destAddresses = "host16"
*.host6.app[10].source.packetNameFormat = "%M-%m-%c"
*.host6.app[10].source.displayStringTextFormat = "sent %p pk (%l)"
*.host6.app[10].messageLength = 14B
*.host6.app[10].sendInterval = 1ms
*.host6.app[10].startTime = 23ms
*.host6.app[10].stopTime = 27ms
*.host6.app[10].display-name = "type2_16"
*.host6.app[10].destPort = 1000
*.host6.app[11].typename = "UdpBasicApp"
*.host6.app[11].destAddresses = "host16"
*.host6.app[11].source.packetNameFormat = "%M-%m-%c"
*.host6.app[11].source.displayStringTextFormat = "sent %p pk (%l)"
*.host6.app[11].messageLength = 14B
*.host6.app[11].sendInterval = 1ms
*.host6.app[11].startTime = 29ms
*.host6.app[11].stopTime = 30ms
*.host6.app[11].display-name = "type2_16"
*.host6.app[11].destPort = 1000
*.host6.app[12].typename = "UdpBasicApp"
*.host6.app[12].destAddresses = "host16"
*.host6.app[12].source.packetNameFormat = "%M-%m-%c"
*.host6.app[12].source.displayStringTextFormat = "sent %p pk (%l)"
*.host6.app[12].messageLength = 14B
*.host6.app[12].sendInterval = 1ms
*.host6.app[12].startTime = 35ms
*.host6.app[12].stopTime = 46ms
*.host6.app[12].display-name = "type2_16"
*.host6.app[12].destPort = 1000
*.host6.app[13].typename = "UdpBasicApp"
*.host6.app[13].destAddresses = "host16"
*.host6.app[13].source.packetNameFormat = "%M-%m-%c"
*.host6.app[13].source.displayStringTextFormat = "sent %p pk (%l)"
*.host6.app[13].messageLength = 14B
*.host6.app[13].sendInterval = 1ms
*.host6.app[13].startTime = 55ms
*.host6.app[13].stopTime = 63ms
*.host6.app[13].display-name = "type2_16"
*.host6.app[13].destPort = 1000
*.host6.app[14].typename = "UdpBasicApp"
*.host6.app[14].destAddresses = "host16"
*.host6.app[14].source.packetNameFormat = "%M-%m-%c"
*.host6.app[14].source.displayStringTextFormat = "sent %p pk (%l)"
*.host6.app[14].messageLength = 14B
*.host6.app[14].sendInterval = 1ms
*.host6.app[14].startTime = 64ms
*.host6.app[14].stopTime = 65ms
*.host6.app[14].display-name = "type2_16"
*.host6.app[14].destPort = 1000
*.host6.app[15].typename = "UdpBasicApp"
*.host6.app[15].destAddresses = "host16"
*.host6.app[15].source.packetNameFormat = "%M-%m-%c"
*.host6.app[15].source.displayStringTextFormat = "sent %p pk (%l)"
*.host6.app[15].messageLength = 14B
*.host6.app[15].sendInterval = 1ms
*.host6.app[15].startTime = 74ms
*.host6.app[15].stopTime = 75ms
*.host6.app[15].display-name = "type2_16"
*.host6.app[15].destPort = 1000
*.host6.app[16].typename = "UdpBasicApp"
*.host6.app[16].destAddresses = "host16"
*.host6.app[16].source.packetNameFormat = "%M-%m-%c"
*.host6.app[16].source.displayStringTextFormat = "sent %p pk (%l)"
*.host6.app[16].messageLength = 14B