[General]
network = TSN_multipath
sim-time-limit = 10ms
*.macForwardingTableConfigurator.typename = ""
*.*.hasStreamRedundancy = true
*.*.bridging.streamRelay.typename = "StreamRelayLayer"
*.*.bridging.streamCoder.typename = "StreamCoderLayer"
*.streamRedundancyConfigurator.typename = "StreamRedundancyConfigurator"
*.host0.eth[0].bitrate = 1000Mbps
*.switch0.eth[0].bitrate = 1000Mbps
*.switch0.eth[1].bitrate = 1700Mbps
*.switch0.eth[2].bitrate = 1200Mbps
*.switch0.eth[3].bitrate = 1600Mbps
*.switch0.eth[4].bitrate = 1700Mbps
*.switch0.eth[5].bitrate = 2100Mbps
*.switch0.eth[6].bitrate = 1900Mbps
*.switch0.eth[7].bitrate = 1300Mbps
*.host1.eth[0].bitrate = 1000Mbps
*.switch1.eth[0].bitrate = 1000Mbps
*.switch1.eth[1].bitrate = 1700Mbps
*.switch1.eth[2].bitrate = 1600Mbps
*.switch1.eth[3].bitrate = 1400Mbps
*.switch1.eth[4].bitrate = 2000Mbps
*.host2.eth[0].bitrate = 1000Mbps
*.switch2.eth[0].bitrate = 1000Mbps
*.switch2.eth[1].bitrate = 1700Mbps
*.switch2.eth[2].bitrate = 2100Mbps
*.switch2.eth[3].bitrate = 1400Mbps
*.switch2.eth[4].bitrate = 1300Mbps
*.host3.eth[0].bitrate = 1000Mbps
*.switch3.eth[0].bitrate = 1000Mbps
*.switch3.eth[1].bitrate = 1200Mbps
*.switch3.eth[2].bitrate = 1600Mbps
*.switch3.eth[3].bitrate = 1300Mbps
*.switch3.eth[4].bitrate = 1900Mbps
*.switch3.eth[5].bitrate = 2000Mbps
*.switch3.eth[6].bitrate = 1600Mbps
*.host4.eth[0].bitrate = 1000Mbps
*.switch4.eth[0].bitrate = 1000Mbps
*.switch4.eth[1].bitrate = 1600Mbps
*.switch4.eth[2].bitrate = 2000Mbps
*.switch4.eth[3].bitrate = 1300Mbps
*.switch4.eth[4].bitrate = 2000Mbps
*.switch4.eth[5].bitrate = 1600Mbps
*.host0.numApps = 6
*.host0.app[0].typename = "UdpBasicApp"
*.host0.app[0].destAddresses = "host2"
*.host0.app[0].source.packetNameFormat = "%M-%m-%c"
*.host0.app[0].source.displayStringTextFormat = "sent %p pk (%l)"
*.host0.app[0].messageLength = 13B
*.host0.app[0].sendInterval = 1ms
*.host0.app[0].startTime = 400us
*.host0.app[0].stopTime = 2600us
*.host0.app[0].display-name = "type2_0"
*.host0.app[0].destPort = 1000
*.host0.app[1].typename = "UdpBasicApp"
*.host0.app[1].destAddresses = "host2"
*.host0.app[1].source.packetNameFormat = "%M-%m-%c"
*.host0.app[1].source.displayStringTextFormat = "sent %p pk (%l)"
*.host0.app[1].messageLength = 13B
*.host0.app[1].sendInterval = 1ms
*.host0.app[1].startTime = 3400us
*.host0.app[1].stopTime = 3600us
*.host0.app[1].display-name = "type2_0"
*.host0.app[1].destPort = 1000
*.host0.app[2].typename = "UdpBasicApp"
*.host0.app[2].destAddresses = "host2"
*.host0.app[2].source.packetNameFormat = "%M-%m-%c"
*.host0.app[2].source.displayStringTextFormat = "sent %p pk (%l)"
*.host0.app[2].messageLength = 13B
*.host0.app[2].sendInterval = 1ms
*.host0.app[2].startTime = 5200us
*.host0.app[2].stopTime = 5600us
*.host0.app[2].display-name = "type2_0"
*.host0.app[2].destPort = 1000
*.host0.app[3].typename = "UdpBasicApp"
*.host0.app[3].destAddresses = "host2"
*.host0.app[3].source.packetNameFormat = "%M-%m-%c"
*.host0.app[3].source.displayStringTextFormat = "sent %p pk (%l)"
*.host0.app[3].messageLength = 13B
*.host0.app[3].sendInterval = 1ms
*.host0.app[3].startTime = 6800us
*.host0.app[3].stopTime = 6900us
*.host0.app[3].display-name = "type2_0"
*.host0.app[3].destPort = 1000
*.host0.app[4].typename = "UdpBasicApp"
*.host0.app[4].destAddresses = "host2"
*.host0.app[4].source.packetNameFormat = "%M-%m-%c"
*.host0.app[4].source.displayStringTextFormat = "sent %p pk (%l)"
*.host0.app[4].messageLength = 13B
*.host0.app[4].sendInterval = 1ms
*.host0.app[4].startTime = 7300us
*.host0.app[4].stopTime = 7500us
*.host0.app[4].display-name = "type2_0"
*.host0.app[4].destPort = 1000
*.host0.app[5].typename = "UdpBasicApp"
*.host0.app[5].destAddresses = "host2"
*.host0.app[5].source.packetNameFormat = "%M-%m-%c"
*.host0.app[5].source.displayStringTextFormat = "sent %p pk (%l)"
*.host0.app[5].messageLength = 13B
*.host0.app[5].sendInterval = 1ms
*.host0.app[5].startTime = 7700us
*.host0.app[5].stopTime = 9300us
*.host0.app[5].display-name = "type2_0"
*.host0.app[5].destPort = 1000
*.host1.numApps = 1
*.host1.app[0].typename = "UdpSinkApp"
*.host1.app[0].io.localPort = 1000
*.host2.numApps = 19
*.host2.app[0].typename = "UdpSourceApp"
*.host2.app[0].io.destAddress = "host1"
*.host2.app[0].source.packetNameFormat = "%M-%m-%c"
*.host2.app[0].source.displayStringTextFormat = "sent %p pk (%l)"
*.host2.app[0].source.packetLength = 13B
*.host2.app[0].source.productionInterval = 1ms
*.host2.app[0].display-name = "type1_0"
*.host2.app[0].io.destPort = 1000
*.host2.app[1].typename = "UdpSinkApp"
*.host2.app[1].io.localPort = 1000
*.host2.app[2].typename = "UdpBasicApp"
*.host2.app[2].destAddresses = "host3"
*.host2.app[2].source.packetNameFormat = "%M-%m-%c"
*.host2.app[2].source.displayStringTextFormat = "sent %p pk (%l)"
*.host2.app[2].messageLength = 17B
*.host2.app[2].sendInterval = 1ms
*.host2.app[2].startTime = 0us
*.host2.app[2].stopTime = 500us
*.host2.app[2].display-name = "type2_1"
*.host2.app[2].destPort = 1000
*.host2.app[3].typename = "UdpBasicApp"
*.host2.app[3].destAddresses = "host3"
*.host2.app[3].source.packetNameFormat = "%M-%m-%c"
*.host2.app[3].source.displayStringTextFormat = "sent %p pk (%l)"
*.host2.app[3].messageLength = 17B
*.host2.app[3].sendInterval = 1ms
*.host2.app[3].startTime = 800us
*.host2.app[3].stopTime = 900us
*.host2.app[3].display-name = "type2_1"
*.host2.app[3].destPort = 1000
*.host2.app[4].typename = "UdpBasicApp"
*.host2.app[4].destAddresses = "host3"
*.host2.app[4].source.packetNameFormat = "%M-%m-%c"
*.host2.app[4].source.displayStringTextFormat = "sent %p pk (%l)"
*.host2.app[4].messageLength = 17B
*.host2.app[4].sendInterval = 1ms
*.host2.app[4].startTime = 2200us
*.host2.app[4].stopTime = 2400us
*.host2.app[4].display-name = "type2_1"
*.host2.app[4].destPort = 1000
*.host2.app[5].typename = "UdpBasicApp"
*.host2.app[5].destAddresses = "host3"
*.host2.app[5].source.packetNameFormat = "%M-%m-%c"
*.host2.app[5].source.displayStringTextFormat = "sent %p pk (%l)"
*.host2.app[5].messageLength = 17B
*.host2.app[5].sendInterval = 1ms
*.host2.app[5].startTime = 3600us
*.host2.app[5].stopTime = 3900us
*.host2.app[5].display-name = "type2_1"
*.host2.app[5].destPort = 1000
*.host2.app[6].typename = "UdpBasicApp"
*.host2.app[6].destAddresses = "host3"
*.host2.app[6].source.packetNameFormat = "%M-%m-%c"
*.host2.app[6].source.displayStringTextFormat = "sent %p pk (%l)"
*.host2.app[6].messageLength = 17B
*.host2.app[6].sendInterval = 1ms
*.host2.app[6].startTime = 5700us
*.host2.app[6].stopTime = 7700us
*.host2.app[6].display-name = "type2_1"
*.host2.app[6].destPort = 1000
*.host2.app[7].typename = "UdpBasicApp"
*.host2.app[7].destAddresses = "host3"
*.host2.app[7].source.packetNameFormat = "%M-%m-%c"
*.host2.app[7].source.displayStringTextFormat = "sent %p pk (%l)"
*.host2.app[7].messageLength = 17B
*.host2.app[7].sendInterval = 1ms
*.host2.app[7].startTime = 8000us
*.host2.app[7].stopTime = 8200us
*.host2.app[7].display-name = "type2_1"
*.host2.app[7].destPort = 1000
*.host2.app[8].typename = "UdpBasicApp"
*.host2.app[8].destAddresses = "host3"
*.host2.app[8].source.packetNameFormat = "%M-%m-%c"
*.host2.app[8].source.displayStringTextFormat = "sent %p pk (%l)"
*.host2.app[8].messageLength = 17B
*.host2.app[8].sendInterval = 1ms
*.host2.app[8].startTime = 9900us
*.host2.app[8].stopTime = 10000us
*.host2.app[8].display-name = "type2_1"
*.host2.app[8].destPort = 1000
*.host2.app[9].typename = "UdpBasicApp"
*.host2.app[9].destAddresses = "host4"
*.host2.app[9].source.packetNameFormat = "%M-%m-%c"
*.host2.app[9].source.displayStringTextFormat = "sent %p pk (%l)"
*.host2.app[9].messageLength = 22B
*.host2.app[9].sendInterval = 1ms
*.host2.app[9].startTime = 700us
*.host2.app[9].stopTime = 2100us
*.host2.app[9].display-name = "type2_2"
*.host2.app[9].destPort = 1000
*.host2.app[10].typename = "UdpBasicApp"
*.host2.app[10].destAddresses = "host4"
*.host2.app[10].source.packetNameFormat = "%M-%m-%c"
*.host2.app[10].source.displayStringTextFormat = "sent %p pk (%l)"
*.host2.app[10].messageLength = 22B
*.host2.app[10].sendInterval = 1ms
*.host2.app[10].startTime = 4900us
*.host2.app[10].stopTime = 5700us
*.host2.app[10].display-name = "type2_2"
*.host2.app[10].destPort = 1000
*.host2.app[11].typename = "UdpBasicApp"
*.host2.app[11].destAddresses = "host4"
*.host2.app[11].source.packetNameFormat = "%M-%m-%c"
*.host2.app[11].source.displayStringTextFormat = "sent %p pk (%l)"
*.host2.app[11].messageLength = 22B
*.host2.app[11].sendInterval = 1ms
*.host2.app[11].startTime = 5900us
*.host2.app[11].stopTime = 7200us
*.host2.app[11].display-name = "type2_2"
*.host2.app[11].destPort = 1000
*.host2.app[12].typename = "UdpBasicApp"
*.host2.app[12].destAddresses = "host4"
*.host2.app[12].source.packetNameFormat = "%M-%m-%c"
*.host2.app[12].source.displayStringTextFormat = "sent %p pk (%l)"
*.host2.app[12].messageLength = 22B
*.host2.app[12].sendInterval = 1ms
*.host2.app[12].startTime = 8800us
*.host2.app[12].stopTime = 9700us
*.host2.app[12].display-name = "type2_2"
*.host2.app[12].destPort = 1000
*.host2.app[13].typename = "UdpBasicApp"
*.host2.app[13].destAddresses = "host3"
*.host2.app[13].source.packetNameFormat = "%M-%m-%c"
*.host2.app[13].source.displayStringTextFormat = "sent %p pk (%l)"
*.host2.app[13].messageLength = 15B
*.host2.app[13].sendInterval = 1ms
*.host2.app[13].startTime = 0us
*.host2.app[13].stopTime = 100us
*.host2.app[13].display-name = "type2_3"
*.host2.app[13].destPort = 1001
*.host2.app[14].typename = "UdpBasicApp"
*.host2.app[14].destAddresses = "host3"
*.host2.app[14].source.packetNameFormat = "%M-%m-%c"
*.host2.app[14].source.displayStringTextFormat = "sent %p pk (%l)"
*.host2.app[14].messageLength = 15B
*.host2.app[14].sendInterval = 1ms
*.host2.app[14].startTime = 800us
*.host2.app[14].stopTime = 1500us
*.host2.app[14].display-name = "type2_3"
*.host2.app[14].destPort = 1001
*.host2.app[15].typename = "UdpBasicApp"
*.host2.app[15].destAddresses = "host3"
*.host2.app[15].source.packetNameFormat = "%M-%m-%c"
*.host2.app[15].source.displayStringTextFormat = "sent %p pk (%l)"
*.host2.app[15].messageLength = 15B
*.host2.app[15].sendInterval = 1ms
*.host2.app[15].startTime = 2400us
*.host2.app[15].stopTime = 2800us
*.host2.app[15].display-name = "type2_3"
*.host2.app[15].destPort = 1001
*.host2.app[16].typename = "UdpBasicApp"
*.host2.app[16].destAddresses = "host3"
*.host2.app[16].source.packetNameFormat = "%M-%m-%c"
*.host2.app[16].source.displayStringTextFormat = "sent %p pk (%l)"
*.host2.app[16].messageLength = 15B
*.host2.app[16].sendInterval = 1ms
*.host2.app[16].startTime = 3400us
*.host2.app[16].stopTime = 4300us
*.host2.app[16].display-name = "type2_3"
*.host2.app[16].destPort = 1001
*.host2.app[17].typename = "UdpBasicApp"
*.host2.app[17].destAddresses = "host3"
*.host2.app[17].source.packetNameFormat = "%M-%m-%c"
*.host2.app[17].source.displayStringTextFormat = "sent %p pk (%l)"
*.host2.app[17].messageLength = 15B
*.host2.app[17].sendInterval = 1ms
*.host2.app[17].startTime = 5300us
*.host2.app[17].stopTime = 6900us
*.host2.app[17].display-name = "type2_3"
*.host2.app[17].destPort = 1001
*.host2.app[18].typename = "UdpBasicApp"
*.host2.app[18].destAddresses = "host3"
*.host2.app[18].source.packetNameFormat = "%M-%m-%c"
*.host2.app[18].source.displayStringTextFormat = "sent %p pk (%l)"
*.host2.app[18].messageLength = 15B
*.host2.app[18].sendInterval = 1ms
*.host2.app[18].startTime = 8500us
*.host2.app[18].stopTime = 9900us
*.host2.app[18].display-name = "type2_3"
*.host2.app[18].destPort = 1001
*.host3.numApps = 2
*.host3.app[0].typename = "UdpSinkApp"
*.host3.app[0].io.localPort = 1000
*.host3.app[1].typename = "UdpSinkApp"
*.host3.app[1].io.localPort = 1001
*.host4.numApps = 1
*.host4.app[0].typename = "UdpSinkApp"
*.host4.app[0].io.localPort = 1000
*.streamRedundancyConfigurator.configuration = [
	{
		name: "S1-0",
		packetFilter: "*-type1_0-*",
		source: "host2",
		destination: "host1",
		trees: [[["host2", "switch2", "switch0", "switch4", "switch1", "host1"]]]
	},
	{
		name: "S2-0",
		packetFilter: "*-type2_0-*",
		source: "host0",
		destination: "host2",
		trees: [[["host0", "switch0", "switch2", "host2"]]]
	},
	{
		name: "S2-1",
		packetFilter: "*-type2_1-*",
		source: "host2",
		destination: "host3",
		trees: [[["host2", "switch2", "switch3", "host3"]]]
	},
	{
		name: "S2-2",
		packetFilter: "*-type2_2-*",
		source: "host2",
		destination: "host4",
		trees: [[["host2", "switch2", "switch3", "switch4", "host4"]]]
	},
	{
		name: "S2-3",
		packetFilter: "*-type2_3-*",
		source: "host2",
		destination: "host3",
		trees: [[["host2", "switch2", "switch3", "host3"]]]
	}]
	

