[General]
network = TSN_multipath
sim-time-limit = 100ms
*.macForwardingTableConfigurator.typename = ""
*.*.hasStreamRedundancy = true
*.*.bridging.streamRelay.typename = "StreamRelayLayer"
*.*.bridging.streamCoder.typename = "StreamCoderLayer"
*.streamRedundancyConfigurator.typename = "StreamRedundancyConfigurator"
*.host0.eth[0].bitrate = 1000Mbps
*.switch0.eth[0].bitrate = 1000Mbps
*.switch0.eth[1].bitrate = 2200Mbps
*.switch0.eth[2].bitrate = 1700Mbps
*.switch0.eth[3].bitrate = 2100Mbps
*.switch0.eth[4].bitrate = 1500Mbps
*.switch0.eth[5].bitrate = 1500Mbps
*.host1.eth[0].bitrate = 1000Mbps
*.switch1.eth[0].bitrate = 1000Mbps
*.switch1.eth[1].bitrate = 2200Mbps
*.switch1.eth[2].bitrate = 1500Mbps
*.switch1.eth[3].bitrate = 1400Mbps
*.switch1.eth[4].bitrate = 2100Mbps
*.switch1.eth[5].bitrate = 2000Mbps
*.switch1.eth[6].bitrate = 2000Mbps
*.host2.eth[0].bitrate = 1000Mbps
*.switch2.eth[0].bitrate = 1000Mbps
*.switch2.eth[1].bitrate = 1700Mbps
*.switch2.eth[2].bitrate = 1400Mbps
*.switch2.eth[3].bitrate = 1500Mbps
*.switch2.eth[4].bitrate = 2000Mbps
*.switch2.eth[5].bitrate = 2100Mbps
*.switch2.eth[6].bitrate = 1400Mbps
*.host3.eth[0].bitrate = 1000Mbps
*.switch3.eth[0].bitrate = 1000Mbps
*.switch3.eth[1].bitrate = 2100Mbps
*.switch3.eth[2].bitrate = 2000Mbps
*.switch3.eth[3].bitrate = 1400Mbps
*.switch3.eth[4].bitrate = 2000Mbps
*.switch3.eth[5].bitrate = 1500Mbps
*.host4.eth[0].bitrate = 1000Mbps
*.switch4.eth[0].bitrate = 1000Mbps
*.switch4.eth[1].bitrate = 2100Mbps
*.switch4.eth[2].bitrate = 2100Mbps
*.switch4.eth[3].bitrate = 2000Mbps
*.switch4.eth[4].bitrate = 1500Mbps
*.host0.numApps = 15
*.host0.app[0].typename = "UdpSourceApp"
*.host0.app[0].io.destAddress = "host1"
*.host0.app[0].source.packetNameFormat = "%M-%m-%c"
*.host0.app[0].source.displayStringTextFormat = "sent %p pk (%l)"
*.host0.app[0].source.packetLength = 18B
*.host0.app[0].source.productionInterval = 1ms
*.host0.app[0].display-name = "type1_0"
*.host0.app[0].io.destPort = 1000
*.host0.app[1].typename = "UdpBasicApp"
*.host0.app[1].destAddresses = "host1"
*.host0.app[1].source.packetNameFormat = "%M-%m-%c"
*.host0.app[1].source.displayStringTextFormat = "sent %p pk (%l)"
*.host0.app[1].messageLength = 24B
*.host0.app[1].sendInterval = 1ms
*.host0.app[1].startTime = 3ms
*.host0.app[1].stopTime = 11ms
*.host0.app[1].display-name = "type2_0"
*.host0.app[1].destPort = 1001
*.host0.app[2].typename = "UdpBasicApp"
*.host0.app[2].destAddresses = "host1"
*.host0.app[2].source.packetNameFormat = "%M-%m-%c"
*.host0.app[2].source.displayStringTextFormat = "sent %p pk (%l)"
*.host0.app[2].messageLength = 24B
*.host0.app[2].sendInterval = 1ms
*.host0.app[2].startTime = 20ms
*.host0.app[2].stopTime = 34ms
*.host0.app[2].display-name = "type2_0"
*.host0.app[2].destPort = 1001
*.host0.app[3].typename = "UdpBasicApp"
*.host0.app[3].destAddresses = "host1"
*.host0.app[3].source.packetNameFormat = "%M-%m-%c"
*.host0.app[3].source.displayStringTextFormat = "sent %p pk (%l)"
*.host0.app[3].messageLength = 24B
*.host0.app[3].sendInterval = 1ms
*.host0.app[3].startTime = 35ms
*.host0.app[3].stopTime = 42ms
*.host0.app[3].display-name = "type2_0"
*.host0.app[3].destPort = 1001
*.host0.app[4].typename = "UdpBasicApp"
*.host0.app[4].destAddresses = "host1"
*.host0.app[4].source.packetNameFormat = "%M-%m-%c"
*.host0.app[4].source.displayStringTextFormat = "sent %p pk (%l)"
*.host0.app[4].messageLength = 24B
*.host0.app[4].sendInterval = 1ms
*.host0.app[4].startTime = 46ms
*.host0.app[4].stopTime = 61ms
*.host0.app[4].display-name = "type2_0"
*.host0.app[4].destPort = 1001
*.host0.app[5].typename = "UdpBasicApp"
*.host0.app[5].destAddresses = "host1"
*.host0.app[5].source.packetNameFormat = "%M-%m-%c"
*.host0.app[5].source.displayStringTextFormat = "sent %p pk (%l)"
*.host0.app[5].messageLength = 24B
*.host0.app[5].sendInterval = 1ms
*.host0.app[5].startTime = 64ms
*.host0.app[5].stopTime = 74ms
*.host0.app[5].display-name = "type2_0"
*.host0.app[5].destPort = 1001
*.host0.app[6].typename = "UdpBasicApp"
*.host0.app[6].destAddresses = "host1"
*.host0.app[6].source.packetNameFormat = "%M-%m-%c"
*.host0.app[6].source.displayStringTextFormat = "sent %p pk (%l)"
*.host0.app[6].messageLength = 24B
*.host0.app[6].sendInterval = 1ms
*.host0.app[6].startTime = 75ms
*.host0.app[6].stopTime = 81ms
*.host0.app[6].display-name = "type2_0"
*.host0.app[6].destPort = 1001
*.host0.app[7].typename = "UdpBasicApp"
*.host0.app[7].destAddresses = "host1"
*.host0.app[7].source.packetNameFormat = "%M-%m-%c"
*.host0.app[7].source.displayStringTextFormat = "sent %p pk (%l)"
*.host0.app[7].messageLength = 24B
*.host0.app[7].sendInterval = 1ms
*.host0.app[7].startTime = 85ms
*.host0.app[7].stopTime = 86ms
*.host0.app[7].display-name = "type2_0"
*.host0.app[7].destPort = 1001
*.host0.app[8].typename = "UdpBasicApp"
*.host0.app[8].destAddresses = "host1"
*.host0.app[8].source.packetNameFormat = "%M-%m-%c"
*.host0.app[8].source.displayStringTextFormat = "sent %p pk (%l)"
*.host0.app[8].messageLength = 24B
*.host0.app[8].sendInterval = 1ms
*.host0.app[8].startTime = 92ms
*.host0.app[8].stopTime = 100ms
*.host0.app[8].display-name = "type2_0"
*.host0.app[8].destPort = 1001
*.host0.app[9].typename = "UdpBasicApp"
*.host0.app[9].destAddresses = "host2"
*.host0.app[9].source.packetNameFormat = "%M-%m-%c"
*.host0.app[9].source.displayStringTextFormat = "sent %p pk (%l)"
*.host0.app[9].messageLength = 16B
*.host0.app[9].sendInterval = 1ms
*.host0.app[9].startTime = 1ms
*.host0.app[9].stopTime = 16ms
*.host0.app[9].display-name = "type2_1"
*.host0.app[9].destPort = 1000
*.host0.app[10].typename = "UdpBasicApp"
*.host0.app[10].destAddresses = "host2"
*.host0.app[10].source.packetNameFormat = "%M-%m-%c"
*.host0.app[10].source.displayStringTextFormat = "sent %p pk (%l)"
*.host0.app[10].messageLength = 16B
*.host0.app[10].sendInterval = 1ms
*.host0.app[10].startTime = 22ms
*.host0.app[10].stopTime = 30ms
*.host0.app[10].display-name = "type2_1"
*.host0.app[10].destPort = 1000
*.host0.app[11].typename = "UdpBasicApp"
*.host0.app[11].destAddresses = "host2"
*.host0.app[11].source.packetNameFormat = "%M-%m-%c"
*.host0.app[11].source.displayStringTextFormat = "sent %p pk (%l)"
*.host0.app[11].messageLength = 16B
*.host0.app[11].sendInterval = 1ms
*.host0.app[11].startTime = 44ms
*.host0.app[11].stopTime = 51ms
*.host0.app[11].display-name = "type2_1"
*.host0.app[11].destPort = 1000
*.host0.app[12].typename = "UdpBasicApp"
*.host0.app[12].destAddresses = "host2"
*.host0.app[12].source.packetNameFormat = "%M-%m-%c"
*.host0.app[12].source.displayStringTextFormat = "sent %p pk (%l)"
*.host0.app[12].messageLength = 16B
*.host0.app[12].sendInterval = 1ms
*.host0.app[12].startTime = 61ms
*.host0.app[12].stopTime = 64ms
*.host0.app[12].display-name = "type2_1"
*.host0.app[12].destPort = 1000
*.host0.app[13].typename = "UdpBasicApp"
*.host0.app[13].destAddresses = "host2"
*.host0.app[13].source.packetNameFormat = "%M-%m-%c"
*.host0.app[13].source.displayStringTextFormat = "sent %p pk (%l)"
*.host0.app[13].messageLength = 16B
*.host0.app[13].sendInterval = 1ms
*.host0.app[13].startTime = 67ms
*.host0.app[13].stopTime = 80ms
*.host0.app[13].display-name = "type2_1"
*.host0.app[13].destPort = 1000
*.host0.app[14].typename = "UdpBasicApp"
*.host0.app[14].destAddresses = "host2"
*.host0.app[14].source.packetNameFormat = "%M-%m-%c"
*.host0.app[14].source.displayStringTextFormat = "sent %p pk (%l)"
*.host0.app[14].messageLength = 16B
*.host0.app[14].sendInterval = 1ms
*.host0.app[14].startTime = 91ms
*.host0.app[14].stopTime = 100ms
*.host0.app[14].display-name = "type2_1"
*.host0.app[14].destPort = 1000
*.host1.numApps = 3
*.host1.app[0].typename = "UdpSinkApp"
*.host1.app[0].io.localPort = 1000
*.host1.app[1].typename = "UdpSinkApp"
*.host1.app[1].io.localPort = 1001
*.host1.app[2].typename = "UdpSinkApp"
*.host1.app[2].io.localPort = 1002
*.host2.numApps = 8
*.host2.app[0].typename = "UdpSinkApp"
*.host2.app[0].io.localPort = 1000
*.host2.app[1].typename = "UdpBasicApp"
*.host2.app[1].destAddresses = "host1"
*.host2.app[1].source.packetNameFormat = "%M-%m-%c"
*.host2.app[1].source.displayStringTextFormat = "sent %p pk (%l)"
*.host2.app[1].messageLength = 12B
*.host2.app[1].sendInterval = 1ms
*.host2.app[1].startTime = 6ms
*.host2.app[1].stopTime = 32ms
*.host2.app[1].display-name = "type2_3"
*.host2.app[1].destPort = 1002
*.host2.app[2].typename = "UdpBasicApp"
*.host2.app[2].destAddresses = "host1"
*.host2.app[2].source.packetNameFormat = "%M-%m-%c"
*.host2.app[2].source.displayStringTextFormat = "sent %p pk (%l)"
*.host2.app[2].messageLength = 12B
*.host2.app[2].sendInterval = 1ms
*.host2.app[2].startTime = 36ms
*.host2.app[2].stopTime = 37ms
*.host2.app[2].display-name = "type2_3"
*.host2.app[2].destPort = 1002
*.host2.app[3].typename = "UdpBasicApp"
*.host2.app[3].destAddresses = "host1"
*.host2.app[3].source.packetNameFormat = "%M-%m-%c"
*.host2.app[3].source.displayStringTextFormat = "sent %p pk (%l)"
*.host2.app[3].messageLength = 12B
*.host2.app[3].sendInterval = 1ms
*.host2.app[3].startTime = 47ms
*.host2.app[3].stopTime = 51ms
*.host2.app[3].display-name = "type2_3"
*.host2.app[3].destPort = 1002
*.host2.app[4].typename = "UdpBasicApp"
*.host2.app[4].destAddresses = "host1"
*.host2.app[4].source.packetNameFormat = "%M-%m-%c"
*.host2.app[4].source.displayStringTextFormat = "sent %p pk (%l)"
*.host2.app[4].messageLength = 12B
*.host2.app[4].sendInterval = 1ms
*.host2.app[4].startTime = 59ms
*.host2.app[4].stopTime = 63ms
*.host2.app[4].display-name = "type2_3"
*.host2.app[4].destPort = 1002
*.host2.app[5].typename = "UdpBasicApp"
*.host2.app[5].destAddresses = "host1"
*.host2.app[5].source.packetNameFormat = "%M-%m-%c"
*.host2.app[5].source.displayStringTextFormat = "sent %p pk (%l)"
*.host2.app[5].messageLength = 12B
*.host2.app[5].sendInterval = 1ms
*.host2.app[5].startTime = 70ms
*.host2.app[5].stopTime = 74ms
*.host2.app[5].display-name = "type2_3"
*.host2.app[5].destPort = 1002
*.host2.app[6].typename = "UdpBasicApp"
*.host2.app[6].destAddresses = "host1"
*.host2.app[6].source.packetNameFormat = "%M-%m-%c"
*.host2.app[6].source.displayStringTextFormat = "sent %p pk (%l)"
*.host2.app[6].messageLength = 12B
*.host2.app[6].sendInterval = 1ms
*.host2.app[6].startTime = 76ms
*.host2.app[6].stopTime = 81ms
*.host2.app[6].display-name = "type2_3"
*.host2.app[6].destPort = 1002
*.host2.app[7].typename = "UdpBasicApp"
*.host2.app[7].destAddresses = "host1"
*.host2.app[7].source.packetNameFormat = "%M-%m-%c"
*.host2.app[7].source.displayStringTextFormat = "sent %p pk (%l)"
*.host2.app[7].messageLength = 12B
*.host2.app[7].sendInterval = 1ms
*.host2.app[7].startTime = 94ms
*.host2.app[7].stopTime = 100ms
*.host2.app[7].display-name = "type2_3"
*.host2.app[7].destPort = 1002
*.host3.numApps = 1
*.host3.app[0].typename = "UdpSinkApp"
*.host3.app[0].io.localPort = 1000
*.host4.numApps = 4
*.host4.app[0].typename = "UdpBasicApp"
*.host4.app[0].destAddresses = "host3"
*.host4.app[0].source.packetNameFormat = "%M-%m-%c"
*.host4.app[0].source.displayStringTextFormat = "sent %p pk (%l)"
*.host4.app[0].messageLength = 22B
*.host4.app[0].sendInterval = 1ms
*.host4.app[0].startTime = 27ms
*.host4.app[0].stopTime = 29ms
*.host4.app[0].display-name = "type2_2"
*.host4.app[0].destPort = 1000
*.host4.app[1].typename = "UdpBasicApp"
*.host4.app[1].destAddresses = "host3"
*.host4.app[1].source.packetNameFormat = "%M-%m-%c"
*.host4.app[1].source.displayStringTextFormat = "sent %p pk (%l)"
*.host4.app[1].messageLength = 22B
*.host4.app[1].sendInterval = 1ms
*.host4.app[1].startTime = 45ms
*.host4.app[1].stopTime = 53ms
*.host4.app[1].display-name = "type2_2"
*.host4.app[1].destPort = 1000
*.host4.app[2].typename = "UdpBasicApp"
*.host4.app[2].destAddresses = "host3"
*.host4.app[2].source.packetNameFormat = "%M-%m-%c"
*.host4.app[2].source.displayStringTextFormat = "sent %p pk (%l)"
*.host4.app[2].messageLength = 22B
*.host4.app[2].sendInterval = 1ms
*.host4.app[2].startTime = 61ms
*.host4.app[2].stopTime = 85ms
*.host4.app[2].display-name = "type2_2"
*.host4.app[2].destPort = 1000
*.host4.app[3].typename = "UdpBasicApp"
*.host4.app[3].destAddresses = "host3"
*.host4.app[3].source.packetNameFormat = "%M-%m-%c"
*.host4.app[3].source.displayStringTextFormat = "sent %p pk (%l)"
*.host4.app[3].messageLength = 22B
*.host4.app[3].sendInterval = 1ms
*.host4.app[3].startTime = 90ms
*.host4.app[3].stopTime = 97ms
*.host4.app[3].display-name = "type2_2"
*.host4.app[3].destPort = 1000
*.streamRedundancyConfigurator.configuration = [
	{
		name: "S1-0",
		packetFilter: "*-type1_0-*",
		source: "host0",
		destination: "host1",
		trees: [[["host0", "switch0", "switch1", "host1"]]]
	},
	{
		name: "S2-0",
		packetFilter: "*-type2_0-*",
		source: "host0",
		destination: "host1",
		trees: [[["host0", "switch0", "switch2", "switch1", "host1"]]]
	},
	{
		name: "S2-1",
		packetFilter: "*-type2_1-*",
		source: "host0",
		destination: "host2",
		trees: [[["host0", "switch0", "switch2", "host2"]]]
	},
	{
		name: "S2-2",
		packetFilter: "*-type2_2-*",
		source: "host4",
		destination: "host3",
		trees: [[["host4", "switch4", "switch3", "host3"]]]
	},
	{
		name: "S2-3",
		packetFilter: "*-type2_3-*",
		source: "host2",
		destination: "host1",
		trees: [[["host2", "switch2", "switch1", "host1"]]]
	}]
	

