[General]
network = TSN_multipath
sim-time-limit = 10ms
*.macForwardingTableConfigurator.typename = ""
*.*.hasStreamRedundancy = true
*.*.bridging.streamRelay.typename = "StreamRelayLayer"
*.*.bridging.streamCoder.typename = "StreamCoderLayer"
*.streamRedundancyConfigurator.typename = "StreamRedundancyConfigurator"
*.host0.eth[0].bitrate = 1000Mbps
*.switch0.eth[0].bitrate = 1000Mbps
*.switch0.eth[1].bitrate = 1300Mbps
*.switch0.eth[2].bitrate = 1500Mbps
*.switch0.eth[3].bitrate = 2000Mbps
*.switch0.eth[4].bitrate = 2200Mbps
*.switch0.eth[5].bitrate = 1200Mbps
*.switch0.eth[6].bitrate = 2300Mbps
*.switch0.eth[7].bitrate = 1200Mbps
*.switch0.eth[8].bitrate = 2200Mbps
*.switch0.eth[9].bitrate = 1600Mbps
*.host1.eth[0].bitrate = 1000Mbps
*.switch1.eth[0].bitrate = 1000Mbps
*.switch1.eth[1].bitrate = 2100Mbps
*.switch1.eth[2].bitrate = 2100Mbps
*.switch1.eth[3].bitrate = 1800Mbps
*.switch1.eth[4].bitrate = 1300Mbps
*.switch1.eth[5].bitrate = 1900Mbps
*.switch1.eth[6].bitrate = 1800Mbps
*.switch1.eth[7].bitrate = 2100Mbps
*.host2.eth[0].bitrate = 1000Mbps
*.switch2.eth[0].bitrate = 1000Mbps
*.switch2.eth[1].bitrate = 1200Mbps
*.switch2.eth[2].bitrate = 1800Mbps
*.switch2.eth[3].bitrate = 1400Mbps
*.switch2.eth[4].bitrate = 2000Mbps
*.switch2.eth[5].bitrate = 2100Mbps
*.switch2.eth[6].bitrate = 2000Mbps
*.switch2.eth[7].bitrate = 1400Mbps
*.switch2.eth[8].bitrate = 1600Mbps
*.switch2.eth[9].bitrate = 1400Mbps
*.host3.eth[0].bitrate = 1000Mbps
*.switch3.eth[0].bitrate = 1000Mbps
*.switch3.eth[1].bitrate = 1300Mbps
*.switch3.eth[2].bitrate = 2300Mbps
*.switch3.eth[3].bitrate = 1300Mbps
*.switch3.eth[4].bitrate = 2000Mbps
*.switch3.eth[5].bitrate = 2100Mbps
*.switch3.eth[6].bitrate = 1900Mbps
*.switch3.eth[7].bitrate = 1800Mbps
*.switch3.eth[8].bitrate = 1600Mbps
*.switch3.eth[9].bitrate = 1800Mbps
*.switch3.eth[10].bitrate = 2100Mbps
*.switch3.eth[11].bitrate = 1800Mbps
*.switch3.eth[12].bitrate = 1400Mbps
*.host4.eth[0].bitrate = 1000Mbps
*.switch4.eth[0].bitrate = 1000Mbps
*.switch4.eth[1].bitrate = 1500Mbps
*.switch4.eth[2].bitrate = 2100Mbps
*.switch4.eth[3].bitrate = 1200Mbps
*.switch4.eth[4].bitrate = 2400Mbps
*.switch4.eth[5].bitrate = 1400Mbps
*.switch4.eth[6].bitrate = 1500Mbps
*.switch4.eth[7].bitrate = 1400Mbps
*.switch4.eth[8].bitrate = 2100Mbps
*.host5.eth[0].bitrate = 1000Mbps
*.switch5.eth[0].bitrate = 1000Mbps
*.switch5.eth[1].bitrate = 2000Mbps
*.switch5.eth[2].bitrate = 2100Mbps
*.switch5.eth[3].bitrate = 1900Mbps
*.switch5.eth[4].bitrate = 1900Mbps
*.switch5.eth[5].bitrate = 1400Mbps
*.switch5.eth[6].bitrate = 1900Mbps
*.switch5.eth[7].bitrate = 1400Mbps
*.switch5.eth[8].bitrate = 1400Mbps
*.switch5.eth[9].bitrate = 2000Mbps
*.host6.eth[0].bitrate = 1000Mbps
*.switch6.eth[0].bitrate = 1000Mbps
*.switch6.eth[1].bitrate = 1400Mbps
*.switch6.eth[2].bitrate = 1800Mbps
*.switch6.eth[3].bitrate = 2200Mbps
*.switch6.eth[4].bitrate = 1600Mbps
*.switch6.eth[5].bitrate = 2100Mbps
*.switch6.eth[6].bitrate = 1400Mbps
*.switch6.eth[7].bitrate = 1400Mbps
*.switch6.eth[8].bitrate = 1800Mbps
*.switch6.eth[9].bitrate = 1900Mbps
*.switch6.eth[10].bitrate = 1500Mbps
*.switch6.eth[11].bitrate = 1500Mbps
*.host7.eth[0].bitrate = 1000Mbps
*.switch7.eth[0].bitrate = 1000Mbps
*.switch7.eth[1].bitrate = 2100Mbps
*.switch7.eth[2].bitrate = 2000Mbps
*.switch7.eth[3].bitrate = 1600Mbps
*.switch7.eth[4].bitrate = 1800Mbps
*.switch7.eth[5].bitrate = 1800Mbps
*.switch7.eth[6].bitrate = 1500Mbps
*.switch7.eth[7].bitrate = 1400Mbps
*.switch7.eth[8].bitrate = 2000Mbps
*.host8.eth[0].bitrate = 1000Mbps
*.switch8.eth[0].bitrate = 1000Mbps
*.switch8.eth[1].bitrate = 2100Mbps
*.switch8.eth[2].bitrate = 2400Mbps
*.switch8.eth[3].bitrate = 1900Mbps
*.switch8.eth[4].bitrate = 2000Mbps
*.switch8.eth[5].bitrate = 1800Mbps
*.switch8.eth[6].bitrate = 1400Mbps
*.switch8.eth[7].bitrate = 1500Mbps
*.host9.eth[0].bitrate = 1000Mbps
*.switch9.eth[0].bitrate = 1000Mbps
*.switch9.eth[1].bitrate = 2200Mbps
*.switch9.eth[2].bitrate = 1800Mbps
*.switch9.eth[3].bitrate = 1900Mbps
*.switch9.eth[4].bitrate = 1500Mbps
*.switch9.eth[5].bitrate = 1600Mbps
*.switch9.eth[6].bitrate = 2100Mbps
*.switch9.eth[7].bitrate = 1400Mbps
*.switch9.eth[8].bitrate = 1400Mbps
*.switch9.eth[9].bitrate = 2100Mbps
*.switch9.eth[10].bitrate = 2000Mbps
*.host0.numApps = 9
*.host0.app[0].typename = "UdpBasicApp"
*.host0.app[0].destAddresses = "host6"
*.host0.app[0].source.packetNameFormat = "%M-%m-%c"
*.host0.app[0].source.displayStringTextFormat = "sent %p pk (%l)"
*.host0.app[0].messageLength = 15B
*.host0.app[0].sendInterval = 1ms
*.host0.app[0].startTime = 800us
*.host0.app[0].stopTime = 1300us
*.host0.app[0].display-name = "type2_0"
*.host0.app[0].destPort = 1001
*.host0.app[1].typename = "UdpBasicApp"
*.host0.app[1].destAddresses = "host6"
*.host0.app[1].source.packetNameFormat = "%M-%m-%c"
*.host0.app[1].source.displayStringTextFormat = "sent %p pk (%l)"
*.host0.app[1].messageLength = 15B
*.host0.app[1].sendInterval = 1ms
*.host0.app[1].startTime = 2400us
*.host0.app[1].stopTime = 2900us
*.host0.app[1].display-name = "type2_0"
*.host0.app[1].destPort = 1001
*.host0.app[2].typename = "UdpBasicApp"
*.host0.app[2].destAddresses = "host6"
*.host0.app[2].source.packetNameFormat = "%M-%m-%c"
*.host0.app[2].source.displayStringTextFormat = "sent %p pk (%l)"
*.host0.app[2].messageLength = 15B
*.host0.app[2].sendInterval = 1ms
*.host0.app[2].startTime = 3900us
*.host0.app[2].stopTime = 4000us
*.host0.app[2].display-name = "type2_0"
*.host0.app[2].destPort = 1001
*.host0.app[3].typename = "UdpBasicApp"
*.host0.app[3].destAddresses = "host6"
*.host0.app[3].source.packetNameFormat = "%M-%m-%c"
*.host0.app[3].source.displayStringTextFormat = "sent %p pk (%l)"
*.host0.app[3].messageLength = 15B
*.host0.app[3].sendInterval = 1ms
*.host0.app[3].startTime = 4400us
*.host0.app[3].stopTime = 5400us
*.host0.app[3].display-name = "type2_0"
*.host0.app[3].destPort = 1001
*.host0.app[4].typename = "UdpBasicApp"
*.host0.app[4].destAddresses = "host6"
*.host0.app[4].source.packetNameFormat = "%M-%m-%c"
*.host0.app[4].source.displayStringTextFormat = "sent %p pk (%l)"
*.host0.app[4].messageLength = 15B
*.host0.app[4].sendInterval = 1ms
*.host0.app[4].startTime = 6500us
*.host0.app[4].stopTime = 8000us
*.host0.app[4].display-name = "type2_0"
*.host0.app[4].destPort = 1001
*.host0.app[5].typename = "UdpBasicApp"
*.host0.app[5].destAddresses = "host6"
*.host0.app[5].source.packetNameFormat = "%M-%m-%c"
*.host0.app[5].source.displayStringTextFormat = "sent %p pk (%l)"
*.host0.app[5].messageLength = 15B
*.host0.app[5].sendInterval = 1ms
*.host0.app[5].startTime = 8100us
*.host0.app[5].stopTime = 9300us
*.host0.app[5].display-name = "type2_0"
*.host0.app[5].destPort = 1001
*.host0.app[6].typename = "UdpBasicApp"
*.host0.app[6].destAddresses = "host6"
*.host0.app[6].source.packetNameFormat = "%M-%m-%c"
*.host0.app[6].source.displayStringTextFormat = "sent %p pk (%l)"
*.host0.app[6].messageLength = 15B
*.host0.app[6].sendInterval = 1ms
*.host0.app[6].startTime = 9700us
*.host0.app[6].stopTime = 10000us
*.host0.app[6].display-name = "type2_0"
*.host0.app[6].destPort = 1001
*.host0.app[7].typename = "UdpSinkApp"
*.host0.app[7].io.localPort = 1000
*.host0.app[8].typename = "UdpSinkApp"
*.host0.app[8].io.localPort = 1001
*.host1.numApps = 8
*.host1.app[0].typename = "UdpSinkApp"
*.host1.app[0].io.localPort = 1000
*.host1.app[1].typename = "UdpBasicApp"
*.host1.app[1].destAddresses = "host6"
*.host1.app[1].source.packetNameFormat = "%M-%m-%c"
*.host1.app[1].source.displayStringTextFormat = "sent %p pk (%l)"
*.host1.app[1].messageLength = 18B
*.host1.app[1].sendInterval = 1ms
*.host1.app[1].startTime = 3200us
*.host1.app[1].stopTime = 3900us
*.host1.app[1].display-name = "type2_4"
*.host1.app[1].destPort = 1003
*.host1.app[2].typename = "UdpBasicApp"
*.host1.app[2].destAddresses = "host6"
*.host1.app[2].source.packetNameFormat = "%M-%m-%c"
*.host1.app[2].source.displayStringTextFormat = "sent %p pk (%l)"
*.host1.app[2].messageLength = 18B
*.host1.app[2].sendInterval = 1ms
*.host1.app[2].startTime = 4000us
*.host1.app[2].stopTime = 4600us
*.host1.app[2].display-name = "type2_4"
*.host1.app[2].destPort = 1003
*.host1.app[3].typename = "UdpBasicApp"
*.host1.app[3].destAddresses = "host6"
*.host1.app[3].source.packetNameFormat = "%M-%m-%c"
*.host1.app[3].source.displayStringTextFormat = "sent %p pk (%l)"
*.host1.app[3].messageLength = 18B
*.host1.app[3].sendInterval = 1ms
*.host1.app[3].startTime = 5300us
*.host1.app[3].stopTime = 5500us
*.host1.app[3].display-name = "type2_4"
*.host1.app[3].destPort = 1003
*.host1.app[4].typename = "UdpBasicApp"
*.host1.app[4].destAddresses = "host6"
*.host1.app[4].source.packetNameFormat = "%M-%m-%c"
*.host1.app[4].source.displayStringTextFormat = "sent %p pk (%l)"
*.host1.app[4].messageLength = 18B
*.host1.app[4].sendInterval = 1ms
*.host1.app[4].startTime = 5800us
*.host1.app[4].stopTime = 6000us
*.host1.app[4].display-name = "type2_4"
*.host1.app[4].destPort = 1003
*.host1.app[5].typename = "UdpBasicApp"
*.host1.app[5].destAddresses = "host6"
*.host1.app[5].source.packetNameFormat = "%M-%m-%c"
*.host1.app[5].source.displayStringTextFormat = "sent %p pk (%l)"
*.host1.app[5].messageLength = 18B
*.host1.app[5].sendInterval = 1ms
*.host1.app[5].startTime = 6300us
*.host1.app[5].stopTime = 8900us
*.host1.app[5].display-name = "type2_4"
*.host1.app[5].destPort = 1003
*.host1.app[6].typename = "UdpBasicApp"
*.host1.app[6].destAddresses = "host6"
*.host1.app[6].source.packetNameFormat = "%M-%m-%c"
*.host1.app[6].source.displayStringTextFormat = "sent %p pk (%l)"
*.host1.app[6].messageLength = 18B
*.host1.app[6].sendInterval = 1ms
*.host1.app[6].startTime = 9100us
*.host1.app[6].stopTime = 10000us
*.host1.app[6].display-name = "type2_4"
*.host1.app[6].destPort = 1003
*.host1.app[7].typename = "UdpSinkApp"
*.host1.app[7].io.localPort = 1001
*.host2.numApps = 20
*.host2.app[0].typename = "UdpSourceApp"
*.host2.app[0].io.destAddress = "host7"
*.host2.app[0].source.packetNameFormat = "%M-%m-%c"
*.host2.app[0].source.displayStringTextFormat = "sent %p pk (%l)"
*.host2.app[0].source.packetLength = 24B
*.host2.app[0].source.productionInterval = 1ms
*.host2.app[0].display-name = "type1_1"
*.host2.app[0].io.destPort = 1000
*.host2.app[1].typename = "UdpBasicApp"
*.host2.app[1].destAddresses = "host6"
*.host2.app[1].source.packetNameFormat = "%M-%m-%c"
*.host2.app[1].source.displayStringTextFormat = "sent %p pk (%l)"
*.host2.app[1].messageLength = 23B
*.host2.app[1].sendInterval = 1ms
*.host2.app[1].startTime = 100us
*.host2.app[1].stopTime = 2000us
*.host2.app[1].display-name = "type2_3"
*.host2.app[1].destPort = 1002
*.host2.app[2].typename = "UdpBasicApp"
*.host2.app[2].destAddresses = "host6"
*.host2.app[2].source.packetNameFormat = "%M-%m-%c"
*.host2.app[2].source.displayStringTextFormat = "sent %p pk (%l)"
*.host2.app[2].messageLength = 23B
*.host2.app[2].sendInterval = 1ms
*.host2.app[2].startTime = 2200us
*.host2.app[2].stopTime = 2800us
*.host2.app[2].display-name = "type2_3"
*.host2.app[2].destPort = 1002
*.host2.app[3].typename = "UdpBasicApp"
*.host2.app[3].destAddresses = "host6"
*.host2.app[3].source.packetNameFormat = "%M-%m-%c"
*.host2.app[3].source.displayStringTextFormat = "sent %p pk (%l)"
*.host2.app[3].messageLength = 23B
*.host2.app[3].sendInterval = 1ms
*.host2.app[3].startTime = 3400us
*.host2.app[3].stopTime = 4500us
*.host2.app[3].display-name = "type2_3"
*.host2.app[3].destPort = 1002
*.host2.app[4].typename = "UdpBasicApp"
*.host2.app[4].destAddresses = "host6"
*.host2.app[4].source.packetNameFormat = "%M-%m-%c"
*.host2.app[4].source.displayStringTextFormat = "sent %p pk (%l)"
*.host2.app[4].messageLength = 23B
*.host2.app[4].sendInterval = 1ms
*.host2.app[4].startTime = 5300us
*.host2.app[4].stopTime = 5900us
*.host2.app[4].display-name = "type2_3"
*.host2.app[4].destPort = 1002
*.host2.app[5].typename = "UdpBasicApp"
*.host2.app[5].destAddresses = "host6"
*.host2.app[5].source.packetNameFormat = "%M-%m-%c"
*.host2.app[5].source.displayStringTextFormat = "sent %p pk (%l)"
*.host2.app[5].messageLength = 23B
*.host2.app[5].sendInterval = 1ms
*.host2.app[5].startTime = 6400us
*.host2.app[5].stopTime = 6600us
*.host2.app[5].display-name = "type2_3"
*.host2.app[5].destPort = 1002
*.host2.app[6].typename = "UdpBasicApp"
*.host2.app[6].destAddresses = "host6"
*.host2.app[6].source.packetNameFormat = "%M-%m-%c"
*.host2.app[6].source.displayStringTextFormat = "sent %p pk (%l)"
*.host2.app[6].messageLength = 23B
*.host2.app[6].sendInterval = 1ms
*.host2.app[6].startTime = 7900us
*.host2.app[6].stopTime = 10000us
*.host2.app[6].display-name = "type2_3"
*.host2.app[6].destPort = 1002
*.host2.app[7].typename = "UdpBasicApp"
*.host2.app[7].destAddresses = "host5"
*.host2.app[7].source.packetNameFormat = "%M-%m-%c"
*.host2.app[7].source.displayStringTextFormat = "sent %p pk (%l)"
*.host2.app[7].messageLength = 18B
*.host2.app[7].sendInterval = 1ms
*.host2.app[7].startTime = 1600us
*.host2.app[7].stopTime = 1800us
*.host2.app[7].display-name = "type2_8"
*.host2.app[7].destPort = 1000
*.host2.app[8].typename = "UdpBasicApp"
*.host2.app[8].destAddresses = "host5"
*.host2.app[8].source.packetNameFormat = "%M-%m-%c"
*.host2.app[8].source.displayStringTextFormat = "sent %p pk (%l)"
*.host2.app[8].messageLength = 18B
*.host2.app[8].sendInterval = 1ms
*.host2.app[8].startTime = 2900us
*.host2.app[8].stopTime = 3100us
*.host2.app[8].display-name = "type2_8"
*.host2.app[8].destPort = 1000
*.host2.app[9].typename = "UdpBasicApp"
*.host2.app[9].destAddresses = "host5"
*.host2.app[9].source.packetNameFormat = "%M-%m-%c"
*.host2.app[9].source.displayStringTextFormat = "sent %p pk (%l)"
*.host2.app[9].messageLength = 18B
*.host2.app[9].sendInterval = 1ms
*.host2.app[9].startTime = 4000us
*.host2.app[9].stopTime = 5400us
*.host2.app[9].display-name = "type2_8"
*.host2.app[9].destPort = 1000
*.host2.app[10].typename = "UdpBasicApp"
*.host2.app[10].destAddresses = "host5"
*.host2.app[10].source.packetNameFormat = "%M-%m-%c"
*.host2.app[10].source.displayStringTextFormat = "sent %p pk (%l)"
*.host2.app[10].messageLength = 18B
*.host2.app[10].sendInterval = 1ms
*.host2.app[10].startTime = 5700us
*.host2.app[10].stopTime = 7300us
*.host2.app[10].display-name = "type2_8"
*.host2.app[10].destPort = 1000
*.host2.app[11].typename = "UdpBasicApp"
*.host2.app[11].destAddresses = "host5"
*.host2.app[11].source.packetNameFormat = "%M-%m-%c"
*.host2.app[11].source.displayStringTextFormat = "sent %p pk (%l)"
*.host2.app[11].messageLength = 18B
*.host2.app[11].sendInterval = 1ms
*.host2.app[11].startTime = 7800us
*.host2.app[11].stopTime = 10000us
*.host2.app[11].display-name = "type2_8"
*.host2.app[11].destPort = 1000
*.host2.app[12].typename = "UdpBasicApp"
*.host2.app[12].destAddresses = "host3"
*.host2.app[12].source.packetNameFormat = "%M-%m-%c"
*.host2.app[12].source.displayStringTextFormat = "sent %p pk (%l)"
*.host2.app[12].messageLength = 17B
*.host2.app[12].sendInterval = 1ms
*.host2.app[12].startTime = 300us
*.host2.app[12].stopTime = 400us
*.host2.app[12].display-name = "type2_9"
*.host2.app[12].destPort = 1001
*.host2.app[13].typename = "UdpBasicApp"
*.host2.app[13].destAddresses = "host3"
*.host2.app[13].source.packetNameFormat = "%M-%m-%c"
*.host2.app[13].source.displayStringTextFormat = "sent %p pk (%l)"
*.host2.app[13].messageLength = 17B
*.host2.app[13].sendInterval = 1ms
*.host2.app[13].startTime = 600us
*.host2.app[13].stopTime = 1000us
*.host2.app[13].display-name = "type2_9"
*.host2.app[13].destPort = 1001
*.host2.app[14].typename = "UdpBasicApp"
*.host2.app[14].destAddresses = "host3"
*.host2.app[14].source.packetNameFormat = "%M-%m-%c"
*.host2.app[14].source.displayStringTextFormat = "sent %p pk (%l)"
*.host2.app[14].messageLength = 17B
*.host2.app[14].sendInterval = 1ms
*.host2.app[14].startTime = 1200us
*.host2.app[14].stopTime = 1300us
*.host2.app[14].display-name = "type2_9"
*.host2.app[14].destPort = 1001
*.host2.app[15].typename = "UdpBasicApp"
*.host2.app[15].destAddresses = "host3"
*.host2.app[15].source.packetNameFormat = "%M-%m-%c"
*.host2.app[15].source.displayStringTextFormat = "sent %p pk (%l)"
*.host2.app[15].messageLength = 17B
*.host2.app[15].sendInterval = 1ms
*.host2.app[15].startTime = 1800us
*.host2.app[15].stopTime = 2900us
*.host2.app[15].display-name = "type2_9"
*.host2.app[15].destPort = 1001
*.host2.app[16].typename = "UdpBasicApp"
*.host2.app[16].destAddresses = "host3"
*.host2.app[16].source.packetNameFormat = "%M-%m-%c"
*.host2.app[16].source.displayStringTextFormat = "sent %p pk (%l)"
*.host2.app[16].messageLength = 17B
*.host2.app[16].sendInterval = 1ms
*.host2.app[16].startTime = 3100us
*.host2.app[16].stopTime = 3600us
*.host2.app[16].display-name = "type2_9"
*.host2.app[16].destPort = 1001
*.host2.app[17].typename = "UdpBasicApp"
*.host2.app[17].destAddresses = "host3"
*.host2.app[17].source.packetNameFormat = "%M-%m-%c"
*.host2.app[17].source.displayStringTextFormat = "sent %p pk (%l)"
*.host2.app[17].messageLength = 17B
*.host2.app[17].sendInterval = 1ms
*.host2.app[17].startTime = 5100us
*.host2.app[17].stopTime = 6600us
*.host2.app[17].display-name = "type2_9"
*.host2.app[17].destPort = 1001
*.host2.app[18].typename = "UdpBasicApp"
*.host2.app[18].destAddresses = "host3"
*.host2.app[18].source.packetNameFormat = "%M-%m-%c"
*.host2.app[18].source.displayStringTextFormat = "sent %p pk (%l)"
*.host2.app[18].messageLength = 17B
*.host2.app[18].sendInterval = 1ms
*.host2.app[18].startTime = 7200us
*.host2.app[18].stopTime = 7800us
*.host2.app[18].display-name = "type2_9"
*.host2.app[18].destPort = 1001
*.host2.app[19].typename = "UdpBasicApp"
*.host2.app[19].destAddresses = "host3"
*.host2.app[19].source.packetNameFormat = "%M-%m-%c"
*.host2.app[19].source.displayStringTextFormat = "sent %p pk (%l)"
*.host2.app[19].messageLength = 17B
*.host2.app[19].sendInterval = 1ms
*.host2.app[19].startTime = 9500us
*.host2.app[19].stopTime = 10000us
*.host2.app[19].display-name = "type2_9"
*.host2.app[19].destPort = 1001
*.host3.numApps = 18
*.host3.app[0].typename = "UdpSinkApp"
*.host3.app[0].io.localPort = 1000
*.host3.app[1].typename = "UdpBasicApp"
*.host3.app[1].destAddresses = "host8"
*.host3.app[1].source.packetNameFormat = "%M-%m-%c"
*.host3.app[1].source.displayStringTextFormat = "sent %p pk (%l)"
*.host3.app[1].messageLength = 14B
*.host3.app[1].sendInterval = 1ms
*.host3.app[1].startTime = 800us
*.host3.app[1].stopTime = 900us
*.host3.app[1].display-name = "type2_5"
*.host3.app[1].destPort = 1000
*.host3.app[2].typename = "UdpBasicApp"
*.host3.app[2].destAddresses = "host8"
*.host3.app[2].source.packetNameFormat = "%M-%m-%c"
*.host3.app[2].source.displayStringTextFormat = "sent %p pk (%l)"
*.host3.app[2].messageLength = 14B
*.host3.app[2].sendInterval = 1ms
*.host3.app[2].startTime = 1000us
*.host3.app[2].stopTime = 1200us
*.host3.app[2].display-name = "type2_5"
*.host3.app[2].destPort = 1000
*.host3.app[3].typename = "UdpBasicApp"
*.host3.app[3].destAddresses = "host8"
*.host3.app[3].source.packetNameFormat = "%M-%m-%c"
*.host3.app[3].source.displayStringTextFormat = "sent %p pk (%l)"
*.host3.app[3].messageLength = 14B
*.host3.app[3].sendInterval = 1ms
*.host3.app[3].startTime = 1600us
*.host3.app[3].stopTime = 1900us
*.host3.app[3].display-name = "type2_5"
*.host3.app[3].destPort = 1000
*.host3.app[4].typename = "UdpBasicApp"
*.host3.app[4].destAddresses = "host8"
*.host3.app[4].source.packetNameFormat = "%M-%m-%c"
*.host3.app[4].source.displayStringTextFormat = "sent %p pk (%l)"
*.host3.app[4].messageLength = 14B
*.host3.app[4].sendInterval = 1ms
*.host3.app[4].startTime = 3000us
*.host3.app[4].stopTime = 4500us
*.host3.app[4].display-name = "type2_5"
*.host3.app[4].destPort = 1000
*.host3.app[5].typename = "UdpBasicApp"
*.host3.app[5].destAddresses = "host8"
*.host3.app[5].source.packetNameFormat = "%M-%m-%c"
*.host3.app[5].source.displayStringTextFormat = "sent %p pk (%l)"
*.host3.app[5].messageLength = 14B
*.host3.app[5].sendInterval = 1ms
*.host3.app[5].startTime = 5000us
*.host3.app[5].stopTime = 6100us
*.host3.app[5].display-name = "type2_5"
*.host3.app[5].destPort = 1000
*.host3.app[6].typename = "UdpBasicApp"
*.host3.app[6].destAddresses = "host8"
*.host3.app[6].source.packetNameFormat = "%M-%m-%c"
*.host3.app[6].source.displayStringTextFormat = "sent %p pk (%l)"
*.host3.app[6].messageLength = 14B
*.host3.app[6].sendInterval = 1ms
*.host3.app[6].startTime = 6500us
*.host3.app[6].stopTime = 7500us
*.host3.app[6].display-name = "type2_5"
*.host3.app[6].destPort = 1000
*.host3.app[7].typename = "UdpBasicApp"
*.host3.app[7].destAddresses = "host8"
*.host3.app[7].source.packetNameFormat = "%M-%m-%c"
*.host3.app[7].source.displayStringTextFormat = "sent %p pk (%l)"
*.host3.app[7].messageLength = 14B
*.host3.app[7].sendInterval = 1ms
*.host3.app[7].startTime = 7600us
*.host3.app[7].stopTime = 9000us
*.host3.app[7].display-name = "type2_5"
*.host3.app[7].destPort = 1000
*.host3.app[8].typename = "UdpBasicApp"
*.host3.app[8].destAddresses = "host8"
*.host3.app[8].source.packetNameFormat = "%M-%m-%c"
*.host3.app[8].source.displayStringTextFormat = "sent %p pk (%l)"
*.host3.app[8].messageLength = 14B
*.host3.app[8].sendInterval = 1ms
*.host3.app[8].startTime = 9300us
*.host3.app[8].stopTime = 10000us
*.host3.app[8].display-name = "type2_5"
*.host3.app[8].destPort = 1000
*.host3.app[9].typename = "UdpSinkApp"
*.host3.app[9].io.localPort = 1001
*.host3.app[10].typename = "UdpBasicApp"
*.host3.app[10].destAddresses = "host0"
*.host3.app[10].source.packetNameFormat = "%M-%m-%c"
*.host3.app[10].source.displayStringTextFormat = "sent %p pk (%l)"
*.host3.app[10].messageLength = 24B
*.host3.app[10].sendInterval = 1ms
*.host3.app[10].startTime = 1600us
*.host3.app[10].stopTime = 1900us
*.host3.app[10].display-name = "type2_11"
*.host3.app[10].destPort = 1001
*.host3.app[11].typename = "UdpBasicApp"
*.host3.app[11].destAddresses = "host0"
*.host3.app[11].source.packetNameFormat = "%M-%m-%c"
*.host3.app[11].source.displayStringTextFormat = "sent %p pk (%l)"
*.host3.app[11].messageLength = 24B
*.host3.app[11].sendInterval = 1ms
*.host3.app[11].startTime = 2200us
*.host3.app[11].stopTime = 2800us
*.host3.app[11].display-name = "type2_11"
*.host3.app[11].destPort = 1001
*.host3.app[12].typename = "UdpBasicApp"
*.host3.app[12].destAddresses = "host0"
*.host3.app[12].source.packetNameFormat = "%M-%m-%c"
*.host3.app[12].source.displayStringTextFormat = "sent %p pk (%l)"
*.host3.app[12].messageLength = 24B
*.host3.app[12].sendInterval = 1ms
*.host3.app[12].startTime = 3000us
*.host3.app[12].stopTime = 3600us
*.host3.app[12].display-name = "type2_11"
*.host3.app[12].destPort = 1001
*.host3.app[13].typename = "UdpBasicApp"
*.host3.app[13].destAddresses = "host0"
*.host3.app[13].source.packetNameFormat = "%M-%m-%c"
*.host3.app[13].source.displayStringTextFormat = "sent %p pk (%l)"
*.host3.app[13].messageLength = 24B
*.host3.app[13].sendInterval = 1ms
*.host3.app[13].startTime = 4400us
*.host3.app[13].stopTime = 4600us
*.host3.app[13].display-name = "type2_11"
*.host3.app[13].destPort = 1001
*.host3.app[14].typename = "UdpBasicApp"
*.host3.app[14].destAddresses = "host0"
*.host3.app[14].source.packetNameFormat = "%M-%m-%c"
*.host3.app[14].source.displayStringTextFormat = "sent %p pk (%l)"
*.host3.app[14].messageLength = 24B
*.host3.app[14].sendInterval = 1ms
*.host3.app[14].startTime = 6200us
*.host3.app[14].stopTime = 6300us
*.host3.app[14].display-name = "type2_11"
*.host3.app[14].destPort = 1001
*.host3.app[15].typename = "UdpBasicApp"
*.host3.app[15].destAddresses = "host0"
*.host3.app[15].source.packetNameFormat = "%M-%m-%c"
*.host3.app[15].source.displayStringTextFormat = "sent %p pk (%l)"
*.host3.app[15].messageLength = 24B
*.host3.app[15].sendInterval = 1ms
*.host3.app[15].startTime = 6500us
*.host3.app[15].stopTime = 7200us
*.host3.app[15].display-name = "type2_11"
*.host3.app[15].destPort = 1001
*.host3.app[16].typename = "UdpBasicApp"
*.host3.app[16].destAddresses = "host0"
*.host3.app[16].source.packetNameFormat = "%M-%m-%c"
*.host3.app[16].source.displayStringTextFormat = "sent %p pk (%l)"
*.host3.app[16].messageLength = 24B
*.host3.app[16].sendInterval = 1ms
*.host3.app[16].startTime = 7400us
*.host3.app[16].stopTime = 9000us
*.host3.app[16].display-name = "type2_11"
*.host3.app[16].destPort = 1001
*.host3.app[17].typename = "UdpBasicApp"
*.host3.app[17].destAddresses = "host0"
*.host3.app[17].source.packetNameFormat = "%M-%m-%c"
*.host3.app[17].source.displayStringTextFormat = "sent %p pk (%l)"
*.host3.app[17].messageLength = 24B
*.host3.app[17].sendInterval = 1ms
*.host3.app[17].startTime = 9500us
*.host3.app[17].stopTime = 10000us
*.host3.app[17].display-name = "type2_11"
*.host3.app[17].destPort = 1001
*.host4.numApps = 13
*.host4.app[0].typename = "UdpBasicApp"
*.host4.app[0].destAddresses = "host1"
*.host4.app[0].source.packetNameFormat = "%M-%m-%c"
*.host4.app[0].source.displayStringTextFormat = "sent %p pk (%l)"
*.host4.app[0].messageLength = 20B
*.host4.app[0].sendInterval = 1ms
*.host4.app[0].startTime = 500us
*.host4.app[0].stopTime = 3100us
*.host4.app[0].display-name = "type2_1"
*.host4.app[0].destPort = 1000
*.host4.app[1].typename = "UdpBasicApp"
*.host4.app[1].destAddresses = "host1"
*.host4.app[1].source.packetNameFormat = "%M-%m-%c"
*.host4.app[1].source.displayStringTextFormat = "sent %p pk (%l)"
*.host4.app[1].messageLength = 20B
*.host4.app[1].sendInterval = 1ms
*.host4.app[1].startTime = 4200us
*.host4.app[1].stopTime = 4500us
*.host4.app[1].display-name = "type2_1"
*.host4.app[1].destPort = 1000
*.host4.app[2].typename = "UdpBasicApp"
*.host4.app[2].destAddresses = "host1"
*.host4.app[2].source.packetNameFormat = "%M-%m-%c"
*.host4.app[2].source.displayStringTextFormat = "sent %p pk (%l)"
*.host4.app[2].messageLength = 20B
*.host4.app[2].sendInterval = 1ms
*.host4.app[2].startTime = 4600us
*.host4.app[2].stopTime = 6400us
*.host4.app[2].display-name = "type2_1"
*.host4.app[2].destPort = 1000
*.host4.app[3].typename = "UdpBasicApp"
*.host4.app[3].destAddresses = "host1"
*.host4.app[3].source.packetNameFormat = "%M-%m-%c"
*.host4.app[3].source.displayStringTextFormat = "sent %p pk (%l)"
*.host4.app[3].messageLength = 20B
*.host4.app[3].sendInterval = 1ms
*.host4.app[3].startTime = 6600us
*.host4.app[3].stopTime = 8100us
*.host4.app[3].display-name = "type2_1"
*.host4.app[3].destPort = 1000
*.host4.app[4].typename = "UdpBasicApp"
*.host4.app[4].destAddresses = "host1"
*.host4.app[4].source.packetNameFormat = "%M-%m-%c"
*.host4.app[4].source.displayStringTextFormat = "sent %p pk (%l)"
*.host4.app[4].messageLength = 20B
*.host4.app[4].sendInterval = 1ms
*.host4.app[4].startTime = 8400us
*.host4.app[4].stopTime = 8500us
*.host4.app[4].display-name = "type2_1"
*.host4.app[4].destPort = 1000
*.host4.app[5].typename = "UdpBasicApp"
*.host4.app[5].destAddresses = "host1"
*.host4.app[5].source.packetNameFormat = "%M-%m-%c"
*.host4.app[5].source.displayStringTextFormat = "sent %p pk (%l)"
*.host4.app[5].messageLength = 20B
*.host4.app[5].sendInterval = 1ms
*.host4.app[5].startTime = 9100us
*.host4.app[5].stopTime = 9600us
*.host4.app[5].display-name = "type2_1"
*.host4.app[5].destPort = 1000
*.host4.app[6].typename = "UdpBasicApp"
*.host4.app[6].destAddresses = "host7"
*.host4.app[6].source.packetNameFormat = "%M-%m-%c"
*.host4.app[6].source.displayStringTextFormat = "sent %p pk (%l)"
*.host4.app[6].messageLength = 19B
*.host4.app[6].sendInterval = 1ms
*.host4.app[6].startTime = 200us
*.host4.app[6].stopTime = 1200us
*.host4.app[6].display-name = "type2_6"
*.host4.app[6].destPort = 1001
*.host4.app[7].typename = "UdpBasicApp"
*.host4.app[7].destAddresses = "host7"
*.host4.app[7].source.packetNameFormat = "%M-%m-%c"
*.host4.app[7].source.displayStringTextFormat = "sent %p pk (%l)"
*.host4.app[7].messageLength = 19B
*.host4.app[7].sendInterval = 1ms
*.host4.app[7].startTime = 1500us
*.host4.app[7].stopTime = 2200us
*.host4.app[7].display-name = "type2_6"
*.host4.app[7].destPort = 1001
*.host4.app[8].typename = "UdpBasicApp"
*.host4.app[8].destAddresses = "host7"
*.host4.app[8].source.packetNameFormat = "%M-%m-%c"
*.host4.app[8].source.displayStringTextFormat = "sent %p pk (%l)"
*.host4.app[8].messageLength = 19B
*.host4.app[8].sendInterval = 1ms
*.host4.app[8].startTime = 2500us
*.host4.app[8].stopTime = 2700us
*.host4.app[8].display-name = "type2_6"
*.host4.app[8].destPort = 1001
*.host4.app[9].typename = "UdpBasicApp"
*.host4.app[9].destAddresses = "host7"
*.host4.app[9].source.packetNameFormat = "%M-%m-%c"
*.host4.app[9].source.displayStringTextFormat = "sent %p pk (%l)"
*.host4.app[9].messageLength = 19B
*.host4.app[9].sendInterval = 1ms
*.host4.app[9].startTime = 3100us
*.host4.app[9].stopTime = 3900us
*.host4.app[9].display-name = "type2_6"
*.host4.app[9].destPort = 1001
*.host4.app[10].typename = "UdpBasicApp"
*.host4.app[10].destAddresses = "host7"
*.host4.app[10].source.packetNameFormat = "%M-%m-%c"
*.host4.app[10].source.displayStringTextFormat = "sent %p pk (%l)"
*.host4.app[10].messageLength = 19B
*.host4.app[10].sendInterval = 1ms
*.host4.app[10].startTime = 4300us
*.host4.app[10].stopTime = 4500us
*.host4.app[10].display-name = "type2_6"
*.host4.app[10].destPort = 1001
*.host4.app[11].typename = "UdpBasicApp"
*.host4.app[11].destAddresses = "host7"
*.host4.app[11].source.packetNameFormat = "%M-%m-%c"
*.host4.app[11].source.displayStringTextFormat = "sent %p pk (%l)"
*.host4.app[11].messageLength = 19B
*.host4.app[11].sendInterval = 1ms
*.host4.app[11].startTime = 5000us
*.host4.app[11].stopTime = 7100us
*.host4.app[11].display-name = "type2_6"
*.host4.app[11].destPort = 1001
*.host4.app[12].typename = "UdpBasicApp"
*.host4.app[12].destAddresses = "host7"
*.host4.app[12].source.packetNameFormat = "%M-%m-%c"
*.host4.app[12].source.displayStringTextFormat = "sent %p pk (%l)"
*.host4.app[12].messageLength = 19B
*.host4.app[12].sendInterval = 1ms
*.host4.app[12].startTime = 8100us
*.host4.app[12].stopTime = 8200us
*.host4.app[12].display-name = "type2_6"