[General]
network = TSN_multipath
sim-time-limit = 10ms
*.macForwardingTableConfigurator.typename = ""
*.*.hasStreamRedundancy = true
*.*.bridging.streamRelay.typename = "StreamRelayLayer"
*.*.bridging.streamCoder.typename = "StreamCoderLayer"
*.streamRedundancyConfigurator.typename = "StreamRedundancyConfigurator"
*.host0.eth[0].bitrate = 1000Mbps
*.switch0.eth[0].bitrate = 1000Mbps
*.switch0.eth[1].bitrate = 1700Mbps
*.switch0.eth[2].bitrate = 1400Mbps
*.switch0.eth[3].bitrate = 1700Mbps
*.switch0.eth[4].bitrate = 1900Mbps
*.switch0.eth[5].bitrate = 2200Mbps
*.switch0.eth[6].bitrate = 1200Mbps
*.host1.eth[0].bitrate = 1000Mbps
*.switch1.eth[0].bitrate = 1000Mbps
*.switch1.eth[1].bitrate = 2000Mbps
*.switch1.eth[2].bitrate = 1400Mbps
*.switch1.eth[3].bitrate = 2000Mbps
*.switch1.eth[4].bitrate = 1900Mbps
*.switch1.eth[5].bitrate = 1400Mbps
*.switch1.eth[6].bitrate = 2200Mbps
*.switch1.eth[7].bitrate = 2300Mbps
*.host2.eth[0].bitrate = 1000Mbps
*.switch2.eth[0].bitrate = 1000Mbps
*.switch2.eth[1].bitrate = 1700Mbps
*.switch2.eth[2].bitrate = 1400Mbps
*.switch2.eth[3].bitrate = 1200Mbps
*.switch2.eth[4].bitrate = 1300Mbps
*.switch2.eth[5].bitrate = 1200Mbps
*.switch2.eth[6].bitrate = 1900Mbps
*.switch2.eth[7].bitrate = 1300Mbps
*.switch2.eth[8].bitrate = 1900Mbps
*.host3.eth[0].bitrate = 1000Mbps
*.switch3.eth[0].bitrate = 1000Mbps
*.switch3.eth[1].bitrate = 1400Mbps
*.switch3.eth[2].bitrate = 1300Mbps
*.switch3.eth[3].bitrate = 2100Mbps
*.switch3.eth[4].bitrate = 2200Mbps
*.switch3.eth[5].bitrate = 1700Mbps
*.host4.eth[0].bitrate = 1000Mbps
*.switch4.eth[0].bitrate = 1000Mbps
*.switch4.eth[1].bitrate = 2000Mbps
*.switch4.eth[2].bitrate = 1200Mbps
*.switch4.eth[3].bitrate = 2200Mbps
*.switch4.eth[4].bitrate = 1800Mbps
*.switch4.eth[5].bitrate = 1800Mbps
*.switch4.eth[6].bitrate = 2400Mbps
*.switch4.eth[7].bitrate = 1800Mbps
*.switch4.eth[8].bitrate = 1300Mbps
*.host5.eth[0].bitrate = 1000Mbps
*.switch5.eth[0].bitrate = 1000Mbps
*.switch5.eth[1].bitrate = 1800Mbps
*.switch5.eth[2].bitrate = 1900Mbps
*.switch5.eth[3].bitrate = 1900Mbps
*.switch5.eth[4].bitrate = 1900Mbps
*.switch5.eth[5].bitrate = 1900Mbps
*.switch5.eth[6].bitrate = 2000Mbps
*.switch5.eth[7].bitrate = 1400Mbps
*.switch5.eth[8].bitrate = 1600Mbps
*.switch5.eth[9].bitrate = 1300Mbps
*.switch5.eth[10].bitrate = 1900Mbps
*.switch5.eth[11].bitrate = 2100Mbps
*.host6.eth[0].bitrate = 1000Mbps
*.switch6.eth[0].bitrate = 1000Mbps
*.switch6.eth[1].bitrate = 1800Mbps
*.switch6.eth[2].bitrate = 1900Mbps
*.switch6.eth[3].bitrate = 1400Mbps
*.switch6.eth[4].bitrate = 1600Mbps
*.switch6.eth[5].bitrate = 1800Mbps
*.switch6.eth[6].bitrate = 2400Mbps
*.switch6.eth[7].bitrate = 1500Mbps
*.switch6.eth[8].bitrate = 2100Mbps
*.host7.eth[0].bitrate = 1000Mbps
*.switch7.eth[0].bitrate = 1000Mbps
*.switch7.eth[1].bitrate = 1200Mbps
*.switch7.eth[2].bitrate = 2400Mbps
*.switch7.eth[3].bitrate = 1800Mbps
*.switch7.eth[4].bitrate = 1300Mbps
*.switch7.eth[5].bitrate = 1300Mbps
*.switch7.eth[6].bitrate = 2400Mbps
*.switch7.eth[7].bitrate = 2300Mbps
*.switch7.eth[8].bitrate = 2000Mbps
*.switch7.eth[9].bitrate = 1800Mbps
*.host8.eth[0].bitrate = 1000Mbps
*.switch8.eth[0].bitrate = 1000Mbps
*.switch8.eth[1].bitrate = 1700Mbps
*.switch8.eth[2].bitrate = 2000Mbps
*.switch8.eth[3].bitrate = 2100Mbps
*.switch8.eth[4].bitrate = 2000Mbps
*.switch8.eth[5].bitrate = 2400Mbps
*.switch8.eth[6].bitrate = 2400Mbps
*.switch8.eth[7].bitrate = 2200Mbps
*.switch8.eth[8].bitrate = 2200Mbps
*.switch8.eth[9].bitrate = 1900Mbps
*.switch8.eth[10].bitrate = 1700Mbps
*.switch8.eth[11].bitrate = 1300Mbps
*.switch8.eth[12].bitrate = 1900Mbps
*.switch8.eth[13].bitrate = 2000Mbps
*.switch8.eth[14].bitrate = 1400Mbps
*.switch8.eth[15].bitrate = 1400Mbps
*.host9.eth[0].bitrate = 1000Mbps
*.switch9.eth[0].bitrate = 1000Mbps
*.switch9.eth[1].bitrate = 1800Mbps
*.switch9.eth[2].bitrate = 1400Mbps
*.switch9.eth[3].bitrate = 1500Mbps
*.switch9.eth[4].bitrate = 2300Mbps
*.switch9.eth[5].bitrate = 1400Mbps
*.switch9.eth[6].bitrate = 1200Mbps
*.switch9.eth[7].bitrate = 2300Mbps
*.switch9.eth[8].bitrate = 2100Mbps
*.switch9.eth[9].bitrate = 2100Mbps
*.switch9.eth[10].bitrate = 1800Mbps
*.switch9.eth[11].bitrate = 1400Mbps
*.host0.numApps = 3
*.host0.app[0].typename = "UdpSourceApp"
*.host0.app[0].io.destAddress = "host2"
*.host0.app[0].source.packetNameFormat = "%M-%m-%c"
*.host0.app[0].source.displayStringTextFormat = "sent %p pk (%l)"
*.host0.app[0].source.packetLength = 23B
*.host0.app[0].source.productionInterval = 1ms
*.host0.app[0].display-name = "type1_0"
*.host0.app[0].io.destPort = 1000
*.host0.app[1].typename = "UdpSourceApp"
*.host0.app[1].io.destAddress = "host5"
*.host0.app[1].source.packetNameFormat = "%M-%m-%c"
*.host0.app[1].source.displayStringTextFormat = "sent %p pk (%l)"
*.host0.app[1].source.packetLength = 14B
*.host0.app[1].source.productionInterval = 1ms
*.host0.app[1].display-name = "type1_1"
*.host0.app[1].io.destPort = 1000
*.host0.app[2].typename = "UdpSinkApp"
*.host0.app[2].io.localPort = 1000
*.host1.numApps = 1
*.host1.app[0].typename = "UdpSinkApp"
*.host1.app[0].io.localPort = 1000
*.host2.numApps = 15
*.host2.app[0].typename = "UdpSinkApp"
*.host2.app[0].io.localPort = 1000
*.host2.app[1].typename = "UdpSourceApp"
*.host2.app[1].io.destAddress = "host5"
*.host2.app[1].source.packetNameFormat = "%M-%m-%c"
*.host2.app[1].source.displayStringTextFormat = "sent %p pk (%l)"
*.host2.app[1].source.packetLength = 12B
*.host2.app[1].source.productionInterval = 1ms
*.host2.app[1].display-name = "type1_2"
*.host2.app[1].io.destPort = 1001
*.host2.app[2].typename = "UdpBasicApp"
*.host2.app[2].destAddresses = "host5"
*.host2.app[2].source.packetNameFormat = "%M-%m-%c"
*.host2.app[2].source.displayStringTextFormat = "sent %p pk (%l)"
*.host2.app[2].messageLength = 24B
*.host2.app[2].sendInterval = 1ms
*.host2.app[2].startTime = 1300us
*.host2.app[2].stopTime = 1700us
*.host2.app[2].display-name = "type2_6"
*.host2.app[2].destPort = 1004
*.host2.app[3].typename = "UdpBasicApp"
*.host2.app[3].destAddresses = "host5"
*.host2.app[3].source.packetNameFormat = "%M-%m-%c"
*.host2.app[3].source.displayStringTextFormat = "sent %p pk (%l)"
*.host2.app[3].messageLength = 24B
*.host2.app[3].sendInterval = 1ms
*.host2.app[3].startTime = 2200us
*.host2.app[3].stopTime = 2400us
*.host2.app[3].display-name = "type2_6"
*.host2.app[3].destPort = 1004
*.host2.app[4].typename = "UdpBasicApp"
*.host2.app[4].destAddresses = "host5"
*.host2.app[4].source.packetNameFormat = "%M-%m-%c"
*.host2.app[4].source.displayStringTextFormat = "sent %p pk (%l)"
*.host2.app[4].messageLength = 24B
*.host2.app[4].sendInterval = 1ms
*.host2.app[4].startTime = 2500us
*.host2.app[4].stopTime = 2800us
*.host2.app[4].display-name = "type2_6"
*.host2.app[4].destPort = 1004
*.host2.app[5].typename = "UdpBasicApp"
*.host2.app[5].destAddresses = "host5"
*.host2.app[5].source.packetNameFormat = "%M-%m-%c"
*.host2.app[5].source.displayStringTextFormat = "sent %p pk (%l)"
*.host2.app[5].messageLength = 24B
*.host2.app[5].sendInterval = 1ms
*.host2.app[5].startTime = 4400us
*.host2.app[5].stopTime = 4900us
*.host2.app[5].display-name = "type2_6"
*.host2.app[5].destPort = 1004
*.host2.app[6].typename = "UdpBasicApp"
*.host2.app[6].destAddresses = "host5"
*.host2.app[6].source.packetNameFormat = "%M-%m-%c"
*.host2.app[6].source.displayStringTextFormat = "sent %p pk (%l)"
*.host2.app[6].messageLength = 24B
*.host2.app[6].sendInterval = 1ms
*.host2.app[6].startTime = 6100us
*.host2.app[6].stopTime = 7400us
*.host2.app[6].display-name = "type2_6"
*.host2.app[6].destPort = 1004
*.host2.app[7].typename = "UdpBasicApp"
*.host2.app[7].destAddresses = "host5"
*.host2.app[7].source.packetNameFormat = "%M-%m-%c"
*.host2.app[7].source.displayStringTextFormat = "sent %p pk (%l)"
*.host2.app[7].messageLength = 24B
*.host2.app[7].sendInterval = 1ms
*.host2.app[7].startTime = 7500us
*.host2.app[7].stopTime = 8900us
*.host2.app[7].display-name = "type2_6"
*.host2.app[7].destPort = 1004
*.host2.app[8].typename = "UdpBasicApp"
*.host2.app[8].destAddresses = "host5"
*.host2.app[8].source.packetNameFormat = "%M-%m-%c"
*.host2.app[8].source.displayStringTextFormat = "sent %p pk (%l)"
*.host2.app[8].messageLength = 24B
*.host2.app[8].sendInterval = 1ms
*.host2.app[8].startTime = 9100us
*.host2.app[8].stopTime = 10000us
*.host2.app[8].display-name = "type2_6"
*.host2.app[8].destPort = 1004
*.host2.app[9].typename = "UdpBasicApp"
*.host2.app[9].destAddresses = "host8"
*.host2.app[9].source.packetNameFormat = "%M-%m-%c"
*.host2.app[9].source.displayStringTextFormat = "sent %p pk (%l)"
*.host2.app[9].messageLength = 18B
*.host2.app[9].sendInterval = 1ms
*.host2.app[9].startTime = 400us
*.host2.app[9].stopTime = 700us
*.host2.app[9].display-name = "type2_7"
*.host2.app[9].destPort = 1000
*.host2.app[10].typename = "UdpBasicApp"
*.host2.app[10].destAddresses = "host8"
*.host2.app[10].source.packetNameFormat = "%M-%m-%c"
*.host2.app[10].source.displayStringTextFormat = "sent %p pk (%l)"
*.host2.app[10].messageLength = 18B
*.host2.app[10].sendInterval = 1ms
*.host2.app[10].startTime = 1300us
*.host2.app[10].stopTime = 2000us
*.host2.app[10].display-name = "type2_7"
*.host2.app[10].destPort = 1000
*.host2.app[11].typename = "UdpBasicApp"
*.host2.app[11].destAddresses = "host8"
*.host2.app[11].source.packetNameFormat = "%M-%m-%c"
*.host2.app[11].source.displayStringTextFormat = "sent %p pk (%l)"
*.host2.app[11].messageLength = 18B
*.host2.app[11].sendInterval = 1ms
*.host2.app[11].startTime = 2200us
*.host2.app[11].stopTime = 2400us
*.host2.app[11].display-name = "type2_7"
*.host2.app[11].destPort = 1000
*.host2.app[12].typename = "UdpBasicApp"
*.host2.app[12].destAddresses = "host8"
*.host2.app[12].source.packetNameFormat = "%M-%m-%c"
*.host2.app[12].source.displayStringTextFormat = "sent %p pk (%l)"
*.host2.app[12].messageLength = 18B
*.host2.app[12].sendInterval = 1ms
*.host2.app[12].startTime = 2500us
*.host2.app[12].stopTime = 4100us
*.host2.app[12].display-name = "type2_7"
*.host2.app[12].destPort = 1000
*.host2.app[13].typename = "UdpBasicApp"
*.host2.app[13].destAddresses = "host8"
*.host2.app[13].source.packetNameFormat = "%M-%m-%c"
*.host2.app[13].source.displayStringTextFormat = "sent %p pk (%l)"
*.host2.app[13].messageLength = 18B
*.host2.app[13].sendInterval = 1ms
*.host2.app[13].startTime = 5600us
*.host2.app[13].stopTime = 7300us
*.host2.app[13].display-name = "type2_7"
*.host2.app[13].destPort = 1000
*.host2.app[14].typename = "UdpBasicApp"
*.host2.app[14].destAddresses = "host8"
*.host2.app[14].source.packetNameFormat = "%M-%m-%c"
*.host2.app[14].source.displayStringTextFormat = "sent %p pk (%l)"
*.host2.app[14].messageLength = 18B
*.host2.app[14].sendInterval = 1ms
*.host2.app[14].startTime = 7800us
*.host2.app[14].stopTime = 8600us
*.host2.app[14].display-name = "type2_7"
*.host2.app[14].destPort = 1000
*.host3.numApps = 8
*.host3.app[0].typename = "UdpSinkApp"
*.host3.app[0].io.localPort = 1000
*.host3.app[1].typename = "UdpBasicApp"
*.host3.app[1].destAddresses = "host7"
*.host3.app[1].source.packetNameFormat = "%M-%m-%c"
*.host3.app[1].source.displayStringTextFormat = "sent %p pk (%l)"
*.host3.app[1].messageLength = 19B
*.host3.app[1].sendInterval = 1ms
*.host3.app[1].startTime = 600us
*.host3.app[1].stopTime = 3600us
*.host3.app[1].display-name = "type2_8"
*.host3.app[1].destPort = 1001
*.host3.app[2].typename = "UdpBasicApp"
*.host3.app[2].destAddresses = "host7"
*.host3.app[2].source.packetNameFormat = "%M-%m-%c"
*.host3.app[2].source.displayStringTextFormat = "sent %p pk (%l)"
*.host3.app[2].messageLength = 19B
*.host3.app[2].sendInterval = 1ms
*.host3.app[2].startTime = 4700us
*.host3.app[2].stopTime = 4800us
*.host3.app[2].display-name = "type2_8"
*.host3.app[2].destPort = 1001
*.host3.app[3].typename = "UdpBasicApp"
*.host3.app[3].destAddresses = "host7"
*.host3.app[3].source.packetNameFormat = "%M-%m-%c"
*.host3.app[3].source.displayStringTextFormat = "sent %p pk (%l)"
*.host3.app[3].messageLength = 19B
*.host3.app[3].sendInterval = 1ms
*.host3.app[3].startTime = 6500us
*.host3.app[3].stopTime = 6900us
*.host3.app[3].display-name = "type2_8"
*.host3.app[3].destPort = 1001
*.host3.app[4].typename = "UdpBasicApp"
*.host3.app[4].destAddresses = "host7"
*.host3.app[4].source.packetNameFormat = "%M-%m-%c"
*.host3.app[4].source.displayStringTextFormat = "sent %p pk (%l)"
*.host3.app[4].messageLength = 19B
*.host3.app[4].sendInterval = 1ms
*.host3.app[4].startTime = 7100us
*.host3.app[4].stopTime = 7700us
*.host3.app[4].display-name = "type2_8"
*.host3.app[4].destPort = 1001
*.host3.app[5].typename = "UdpBasicApp"
*.host3.app[5].destAddresses = "host4"
*.host3.app[5].source.packetNameFormat = "%M-%m-%c"
*.host3.app[5].source.displayStringTextFormat = "sent %p pk (%l)"
*.host3.app[5].messageLength = 20B
*.host3.app[5].sendInterval = 1ms
*.host3.app[5].startTime = 6400us
*.host3.app[5].stopTime = 7400us
*.host3.app[5].display-name = "type2_9"
*.host3.app[5].destPort = 1001
*.host3.app[6].typename = "UdpBasicApp"
*.host3.app[6].destAddresses = "host4"
*.host3.app[6].source.packetNameFormat = "%M-%m-%c"
*.host3.app[6].source.displayStringTextFormat = "sent %p pk (%l)"
*.host3.app[6].messageLength = 20B
*.host3.app[6].sendInterval = 1ms
*.host3.app[6].startTime = 8200us
*.host3.app[6].stopTime = 9200us
*.host3.app[6].display-name = "type2_9"
*.host3.app[6].destPort = 1001
*.host3.app[7].typename = "UdpSinkApp"
*.host3.app[7].io.localPort = 1001
*.host4.numApps = 10
*.host4.app[0].typename = "UdpSinkApp"
*.host4.app[0].io.localPort = 1000
*.host4.app[1].typename = "UdpBasicApp"
*.host4.app[1].destAddresses = "host5"
*.host4.app[1].source.packetNameFormat = "%M-%m-%c"
*.host4.app[1].source.displayStringTextFormat = "sent %p pk (%l)"
*.host4.app[1].messageLength = 24B
*.host4.app[1].sendInterval = 1ms
*.host4.app[1].startTime = 900us
*.host4.app[1].stopTime = 1100us
*.host4.app[1].display-name = "type2_5"
*.host4.app[1].destPort = 1003
*.host4.app[2].typename = "UdpBasicApp"
*.host4.app[2].destAddresses = "host5"
*.host4.app[2].source.packetNameFormat = "%M-%m-%c"
*.host4.app[2].source.displayStringTextFormat = "sent %p pk (%l)"
*.host4.app[2].messageLength = 24B
*.host4.app[2].sendInterval = 1ms
*.host4.app[2].startTime = 1600us
*.host4.app[2].stopTime = 2000us
*.host4.app[2].display-name = "type2_5"
*.host4.app[2].destPort = 1003
*.host4.app[3].typename = "UdpBasicApp"
*.host4.app[3].destAddresses = "host5"
*.host4.app[3].source.packetNameFormat = "%M-%m-%c"
*.host4.app[3].source.displayStringTextFormat = "sent %p pk (%l)"
*.host4.app[3].messageLength = 24B
*.host4.app[3].sendInterval = 1ms
*.host4.app[3].startTime = 2800us
*.host4.app[3].stopTime = 3000us
*.host4.app[3].display-name = "type2_5"
*.host4.app[3].destPort = 1003
*.host4.app[4].typename = "UdpBasicApp"
*.host4.app[4].destAddresses = "host5"
*.host4.app[4].source.packetNameFormat = "%M-%m-%c"
*.host4.app[4].source.displayStringTextFormat = "sent %p pk (%l)"
*.host4.app[4].messageLength = 24B
*.host4.app[4].sendInterval = 1ms
*.host4.app[4].startTime = 3700us
*.host4.app[4].stopTime = 3900us
*.host4.app[4].display-name = "type2_5"
*.host4.app[4].destPort = 1003
*.host4.app[5].typename = "UdpBasicApp"
*.host4.app[5].destAddresses = "host5"
*.host4.app[5].source.packetNameFormat = "%M-%m-%c"
*.host4.app[5].source.displayStringTextFormat = "sent %p pk (%l)"
*.host4.app[5].messageLength = 24B
*.host4.app[5].sendInterval = 1ms
*.host4.app[5].startTime = 4800us
*.host4.app[5].stopTime = 5000us
*.host4.app[5].display-name = "type2_5"
*.host4.app[5].destPort = 1003
*.host4.app[6].typename = "UdpBasicApp"
*.host4.app[6].destAddresses = "host5"
*.host4.app[6].source.packetNameFormat = "%M-%m-%c"
*.host4.app[6].source.displayStringTextFormat = "sent %p pk (%l)"
*.host4.app[6].messageLength = 24B
*.host4.app[6].sendInterval = 1ms
*.host4.app[6].startTime = 5100us
*.host4.app[6].stopTime = 5200us
*.host4.app[6].display-name = "type2_5"
*.host4.app[6].destPort = 1003
*.host4.app[7].typename = "UdpBasicApp"
*.host4.app[7].destAddresses = "host5"
*.host4.app[7].source.packetNameFormat = "%M-%m-%c"
*.host4.app[7].source.displayStringTextFormat = "sent %p pk (%l)"
*.host4.app[7].messageLength = 24B
*.host4.app[7].sendInterval = 1ms
*.host4.app[7].startTime = 6200us
*.host4.app[7].stopTime = 7200us
*.host4.app[7].display-name = "type2_5"
*.host4.app[7].destPort = 1003
*.host4.app[8].typename = "UdpBasicApp"
*.host4.app[8].destAddresses = "host5"
*.host4.app[8].source.packetNameFormat = "%M-%m-%c"
*.host4.app[8].source.displayStringTextFormat = "sent %p pk (%l)"
*.host4.app[8].messageLength = 24B
*.host4.app[8].sendInterval = 1ms
*.host4.app[8].startTime = 8800us
*.host4.app[8].stopTime = 9900us
*.host4.app[8].display-name = "type2_5"
*.host4.app[8].destPort = 1003
*.host4.app[9].typename = "UdpSinkApp"
*.host4.app[9].io.localPort = 1001
*.host5.numApps = 5
*.host5.app[0].typename = "UdpSinkApp"
*.host5.app[0].io.localPort = 1000
*.host5.app[1].typename = "UdpSinkApp"
*.host5.app[1].io.localPort = 1001
*.host5.app[2].typename = "UdpSinkApp"
*.host5.app[2].io.localPort = 1002
*.host5.app[3].typename = "UdpSinkApp"
*.host5.app[3].io.localPort = 1003
*.host5.app[4].typename = "UdpSinkApp"
*.host5.app[4].io.localPort = 1004
*.host6.numApps = 8
*.host6.app[0].typename = "UdpBasicApp"
*.host6.app[0].destAddresses = "host7"
*.host6.app[0].source.packetNameFormat = "%M-%m-%c"
*.host6.app[0].source.displayStringTextFormat = "sent %p pk (%l)"
*.host6.app[0].messageLength = 15B
*.host6.app[0].sendInterval = 1ms
*.host6.app[0].startTime = 600us
*.host6.app[0].stopTime = 1200us
*.host6.app[0].display-name = "type2_4"
*.host6.app[0].destPort = 1000
*.host6.app[1].typename = "UdpBasicApp"
*.host6.app[1].destAddresses = "host7"
*.host6.app[1].source.packetNameFormat = "%M-%m-%c"
*.host6.app[1].source.displayStringTextFormat = "sent %p pk (%l)"
*.host6.app[1].messageLength = 15B
*.host6.app[1].sendInterval = 1ms
*.host6.app[1].startTime = 1400us
*.host6.app[1].stopTime = 1800us
*.host6.app[1].display-name = "type2_4"
*.host6.app[1].destPort = 1000
*.host6.app[2].typename = "UdpBasicApp"
*.host6.app[2].destAddresses = "host7"
*.host6.app[2].source.packetNameFormat = "%M-%m-%c"
*.host6.app[2].source.displayStringTextFormat = "sent %p pk (%l)"
*.host6.app[2].messageLength = 15B
*.host6.app[2].sendInterval = 1ms
*.host6.app[2].startTime = 2500us
*.host6.app[2].stopTime = 3300us
*.host6.app[2].display-name = "type2_4"
*.host6.app[2].destPort = 1000
*.host6.app[3].typename = "UdpBasicApp"
*.host6.app[3].destAddresses = "host7"
*.host6.app[3].source.packetNameFormat = "%M-%m-%c"
*.host6.app[3].source.displayStringTextFormat = "sent %p pk (%l)"
*.host6.app[3].messageLength = 15B
*.host6.app[3].sendInterval = 1ms
*.host6.app[3].startTime = 4300us
*.host6.app[3].stopTime = 4600us
*.host6.app[3].display-name = "type2_4"
*.host6.app[3].destPort = 1000
*.host6.app[4].typename = "UdpBasicApp"
*.host6.app[4].destAddresses = "host7"
*.host6.app[4].source.packetNameFormat = "%M-%m-%c"
*.host6.app[4].source.displayStringTextFormat = "sent %p pk (%l)"
*.host6.app[4].messageLength = 15B
*.host6.app[4].sendInterval = 1ms
*.host6.app[4].startTime = 4700us
*.host6.app[4].stopTime = 5000us
*.host6.app[4].display-name = "type2_4"
*.host6.app[4].destPort = 1000
*.host6.app[5].typename = "UdpBasicApp"
*.host6.app[5].destAddresses = "host7"
*.host6.app[5].source.packetNameFormat = "%M-%m-%c"
*.host6.app[5].source.displayStringTextFormat = "sent %p pk (%l)"
*.host6.app[5].messageLength = 15B
*.host6.app[5].sendInterval = 1ms
*.host6.app[5].startTime = 5400us
*.host6.app[5].stopTime = 5600us
*.host6.app[5].display-name = "type2_4"
*.host6.app[5].destPort = 1000
*.host6.app[6].typename = "UdpBasicApp"
*.host6.app[6].destAddresses = "host7"
*.host6.app[6].source.packetNameFormat = "%M-%m-%c"
*.host6.app[6].source.displayStringTextFormat = "sent %p pk (%l)"
*.host6.app[6].messageLength = 15B
*.host6.app[6].sendInterval = 1ms
*.host6.app[6].startTime = 7800us
*.host6.app[6].stopTime = 8300us
*.host6.app[6].display-name = "type2_4"
*.host6.app[6].destPort = 1000
*.host6.app[7].typename = "UdpBasicApp"
*.host6.app[7].destAddresses = "host7"
*.host6.app[7].source.packetNameFormat = "%M-%m-%c"
*.host6.app[7].source.displayStringTextFormat = "sent %p pk (%l)"
*.host6.app[7].messageLength = 15B
*.host6.app[7].sendInterval = 1ms
*.host6.app[7].startTime = 8800us
*.host6.app[7].stopTime = 10000us
*.host6.app[7].display-name = "type2_4"
*.host6.app[7].destPort = 1000
*.host7.numApps = 7
*.host7.app[0].typename = "UdpSinkApp"
*.host7.app[0].io.localPort = 1000
*.host7.app[1].typename = "UdpSinkApp"
*.host7.app[1].io.localPort = 1001
*.host7.app[2].typename = "UdpBasicApp"
*.host7.app[2].destAddresses = "host0"
*.host7.app[2].source.packetNameFormat = "%M-%m-%c"
*.host7.app[2].source.displayStringTextFormat = "sent %p pk (%l)"
*.host7.app[2].messageLength = 22B
*.host7.app[2].sendInterval = 1ms
*.host7.app[2].startTime = 100us
*.host7.app[2].stopTime = 2600us
*.host7.app[2].display-name = "type2_10"
*.host7.app[2].destPort = 1000
*.host7.app[3].typename = "UdpBasicApp"
*.host7.app[3].destAddresses = "host0"
*.host7.app[3].source.packetNameFormat = "%M-%m-%c"
*.host7.app[3].source.displayStringTextFormat = "sent %p pk (%l)"
*.host7.app[3].messageLength = 22B
*.host7.app[3].sendInterval = 1ms
*.host7.app[3].startTime = 2700us
*.host7.app[3].stopTime = 2900us
*.host7.app[3].display-name = "type2_10"
*.host7.app[3].destPort = 1000
*.host7.app[4].typename = "UdpBasicApp"
*.host7.app[4].destAddresses = "host0"
*.host7.app[4].source.packetNameFormat = "%M-%m-%c"
*.host7.app[4].source.displayStringTextFormat = "sent %p pk (%l)"
*.host7.app[4].messageLength = 22B
*.host7.app[4].sendInterval = 1ms
*.host7.app[4].startTime = 3300us
*.host7.app[4].stopTime = 4500us
*.host7.app[4].display-name = "type2_10"
*.host7.app[4].destPort = 1000
*.host7.app[5].typename = "UdpBasicApp"
*.host7.app[5].destAddresses = "host0"
*.host7.app[5].source.packetNameFormat = "%M-%m-%c"
*.host7.app[5].source.displayStringTextFormat = "sent %p pk (%l)"
*.host7.app[5].messageLength = 22B
*.host7.app[5].sendInterval = 1ms
*.host7.app[5].startTime = 6000us
*.host7.app[5].stopTime = 6200us
*.host7.app[5].display-name = "type2_10"
*.host7.app[5].destPort = 1000
*.host7.app[6].typename = "UdpBasicApp"
*.host7.app[6].destAddresses = "host0"
*.host7.app[6].source.packetNameFormat = "%M-%m-%c"
*.host7.app[6].source.displayStringTextFormat = "sent %p pk (%l)"
*.host7.app[6].messageLength = 22B
*.host7.app[6].sendInterval = 1ms
*.host7.app[6].startTime = 6800us
*.host7.app[6].stopTime = 10000us
*.host7.app[6].display-name = "type2_10"
*.host7.app[6].destPort = 1000
*.host8.numApps = 14
*.host8.app[0].typename = "UdpBasicApp"
*.host8.app[0].destAddresses = "host4"
*.host8.app[0].source.packetNameFormat = "%M-%m-%c"
*.host8.app[0].source.displayStringTextFormat = "sent %p pk (%l)"
*.host8.app[0].messageLength = 21B
*.host8.app[0].sendInterval = 1ms
*.host8.app[0].startTime = 2500us
*.host8.app[0].stopTime = 3700us
*.host8.app[0].display-name = "type2_0"
*.host8.app[0].destPort = 1000
*.host8.app[1].typename = "UdpBasicApp"
*.host8.app[1].destAddresses = "host4"
*.host8.app[1].source.packetNameFormat = "%M-%m-%c"
*.host8.app[1].source.displayStringTextFormat = "sent %p pk (%l)"
*.host8.app[1].messageLength = 21B
*.host8.app[1].sendInterval = 1ms
*.host8.app[1].startTime = 3800us
*.host8.app[1].stopTime = 3900us
*.host8.app[1].display-name = "type2_0"
*.host8.app[1].destPort = 1000
*.host8.app[2].typename = "UdpBasicApp"
*.host8.app[2].destAddresses = "host4"
*.host8.app[2].source.packetNameFormat = "%M-%m-%c"
*.host8.app[2].source.displayStringTextFormat = "sent %p pk (%l)"
*.host8.app[2].messageLength = 21B
*.host8.app[2].sendInterval = 1ms
*.host8.app[2].startTime = 4900us
*.host8.app[2].stopTime = 5300us
*.host8.app[2].display-name = "type2_0"
*.host8.app[2].destPort = 1000
*.host8.app[3].typename = "UdpBasicApp"
*.host8.app[3].destAddresses = "host4"
*.host8.app[3].source.packetNameFormat = "%M-%m-%c"
*.host8.app[3].source.displayStringTextFormat = "sent %p pk (%l)"
*.host8.app[3].messageLength = 21B
*.host8.app[3].sendInterval = 1ms
*.host8.app[3].startTime = 5400us
*.host8.app[3].stopTime = 7000us
*.host8.app[3].display-name = "type2_0"
*.host8.app[3].destPort = 1000
*.host8.app[4].typename = "UdpBasicApp"
*.host8.app[4].destAddresses = "host4"
*.host8.app[4].source.packetNameFormat = "%M-%m-%c"
*.host8.app[4].source.displayStringTextFormat = "sent %p pk (%l)"
*.host8.app[4].messageLength = 21B
*.host8.app[4].sendInterval = 1ms
*.host8.app[4].startTime = 8200us
*.host8.app[4].stopTime = 8400us
*.host8.app[4].display-name = "type2_0"
*.host8.app[4].destPort = 1000
*.host8.app[5].typename = "UdpBasicApp"
*.host8.app[5].destAddresses = "host4"
*.host8.app[5].source.packetNameFormat = "%M-%m-%c"
*.host8.app[5].source.displayStringTextFormat = "sent %p pk (%l)"
*.host8.app[5].messageLength = 21B
*.host8.app[5].sendInterval = 1ms
*.host8.app[5].startTime = 8500us
*.host8.app[5].stopTime = 10000us
*.host8.app[5].display-name = "type2_0"
*.host8.app[5].destPort = 1000
*.host8.app[6].typename = "UdpBasicApp"
*.host8.app[6].destAddresses = "host5"
*.host8.app[6].source.packetNameFormat = "%M-%m-%c"
*.host8.app[6].source.displayStringTextFormat = "sent %p pk (%l)"
*.host8.app[6].messageLength = 12B
*.host8.app[6].sendInterval = 1ms
*.host8.app[6].startTime = 900us
*.host8.app[6].stopTime = 1100us
*.host8.app[6].display-name = "type2_2"
*.host8.app[6].destPort = 1002
*.host8.app[7].typename = "UdpBasicApp"
*.host8.app[7].destAddresses = "host5"
*.host8.app[7].source.packetNameFormat = "%M-%m-%c"
*.host8.app[7].source.displayStringTextFormat = "sent %p pk (%l)"
*.host8.app[7].messageLength = 12B
*.host8.app[7].sendInterval = 1ms
*.host8.app[7].startTime = 1400us
*.host8.app[7].stopTime = 1500us
*.host8.app[7].display-name = "type2_2"
*.host8.app[7].destPort = 1002
*.host8.app[8].typename = "UdpBasicApp"
*.host8.app[8].destAddresses = "host5"
*.host8.app[8].source.packetNameFormat = "%M-%m-%c"
*.host8.app[8].source.displayStringTextFormat = "sent %p pk (%l)"
*.host8.app[8].messageLength = 12B
*.host8.app[8].sendInterval = 1ms
*.host8.app[8].startTime = 2200us
*.host8.app[8].stopTime = 2900us
*.host8.app[8].display-name = "type2_2"
*.host8.app[8].destPort = 1002
*.host8.app[9].typename = "UdpBasicApp"
*.host8.app[9].destAddresses = "host5"
*.host8.app[9].source.packetNameFormat = "%M-%m-%c"
*.host8.app[9].source.displayStringTextFormat = "sent %p pk (%l)"
*.host8.app[9].messageLength = 12B
*.host8.app[9].sendInterval = 1ms
*.host8.app[9].startTime = 4200us
*.host8.app[9].stopTime = 4400us
*.host8.app[9].display-name = "type2_2"
*.host8.app[9].destPort = 1002
*.host8.app[10].typename = "UdpBasicApp"
*.host8.app[10].destAddresses = "host5"
*.host8.app[10].source.packetNameFormat = "%M-%m-%c"
*.host8.app[10].source.displayStringTextFormat = "sent %p pk (%l)"
*.host8.app[10].messageLength = 12B
*.host8.app[10].sendInterval = 1ms
*.host8.app[10].startTime = 5400us
*.host8.app[10].stopTime = 5600us
*.host8.app[10].display-name = "type2_2"
*.host8.app[10].destPort = 1002
*.host8.app[11].typename = "UdpBasicApp"
*.host8.app[11].destAddresses = "host5"
*.host8.app[11].source.packetNameFormat = "%M-%m-%c"
*.host8.app[11].source.displayStringTextFormat = "sent %p pk (%l)"
*.host8.app[11].messageLength = 12B
*.host8.app[11].sendInterval = 1ms
*.host8.app[11].startTime = 5800us
*.host8.app[11].stopTime = 7500us
*.host8.app[11].display-name = "type2_2"
*.host8.app[11].destPort = 1002
*.host8.app[12].typename = "UdpBasicApp"
*.host8.app[12].destAddresses = "host5"
*.host8.app[12].source.packetNameFormat = "%M-%m-%c"
*.host8.app[12].source.displayStringTextFormat = "sent %p pk (%l)"
*.host8.app[12].messageLength = 12B
*.host8.app[12].sendInterval = 1ms
*.host8.app[12].startTime = 8900us
*.host8.app[12].stopTime = 9200us
*.host8.app[12].display-name = "type2_2"
*.host8.app[12].destPort = 1002
*.host8.app[13].typename = "UdpSinkApp"
*.host8.app[13].io.localPort = 1000
*.host9.numApps = 15
*.host9.app[0].typename = "UdpBasicApp"
*.host9.app[0].destAddresses = "host3"
*.host9.app[0].source.packetNameFormat = "%M-%m-%c"
*.host9.app[0].source.displayStringTextFormat = "sent %p pk (%l)"
*.host9.app[0].messageLength = 22B
*.host9.app[0].sendInterval = 1ms
*.host9.app[0].startTime = 800us
*.host9.app[0].stopTime = 1300us
*.host9.app[0].display-name = "type2_1"
*.host9.app[0].destPort = 1000
*.host9.app[1].typename = "UdpBasicApp"
*.host9.app[1].destAddresses = "host3"
*.host9.app[1].source.packetNameFormat = "%M-%m-%c"
*.host9.app[1].source.displayStringTextFormat = "sent %p pk (%l)"
*.host9.app[1].messageLength = 22B
*.host9.app[1].sendInterval = 1ms
*.host9.app[1].startTime = 1400us
*.host9.app[1].stopTime = 2000us
*.host9.app[1].display-name = "type2_1"
*.host9.app[1].destPort = 1000
*.host9.app[2].typename = "UdpBasicApp"
*.host9.app[2].destAddresses = "host3"
*.host9.app[2].source.packetNameFormat = "%M-%m-%c"
*.host9.app[2].source.displayStringTextFormat = "sent %p pk (%l)"
*.host9.app[2].messageLength = 22B
*.host9.app[2].sendInterval = 1ms
*.host9.app[2].startTime = 4500us
*.host9.app[2].stopTime = 7300us
*.host9.app[2].display-name = "type2_1"
*.host9.app[2].destPort = 1000
*.host9.app[3].typename = "UdpBasicApp"
*.host9.app[3].destAddresses = "host3"
*.host9.app[3].source.packetNameFormat = "%M-%m-%c"
*.host9.app[3].source.displayStringTextFormat = "sent %p pk (%l)"
*.host9.app[3].messageLength = 22B
*.host9.app[3].sendInterval = 1ms
*.host9.app[3].startTime = 7900us
*.host9.app[3].stopTime = 10000us
*.host9.app[3].display-name = "type2_1"
*.host9.app[3].destPort = 1000
*.host9.app[4].typename = "UdpBasicApp"
*.host9.app[4].destAddresses = "host1"
*.host9.app[4].source.packetNameFormat = "%M-%m-%c"
*.host9.app[4].source.displayStringTextFormat = "sent %p pk (%l)"
*.host9.app[4].messageLength = 16B
*.host9.app[4].sendInterval = 1ms