[General]
network = TSN_multipath
sim-time-limit = 10ms
*.macForwardingTableConfigurator.typename = ""
*.*.hasStreamRedundancy = true
*.*.bridging.streamRelay.typename = "StreamRelayLayer"
*.*.bridging.streamCoder.typename = "StreamCoderLayer"
*.streamRedundancyConfigurator.typename = "StreamRedundancyConfigurator"
*.host0.eth[0].bitrate = 1000Mbps
*.switch0.eth[0].bitrate = 1000Mbps
*.switch0.eth[1].bitrate = 1500Mbps
*.switch0.eth[2].bitrate = 1700Mbps
*.switch0.eth[3].bitrate = 1500Mbps
*.switch0.eth[4].bitrate = 1300Mbps
*.switch0.eth[5].bitrate = 1200Mbps
*.switch0.eth[6].bitrate = 2100Mbps
*.host1.eth[0].bitrate = 1000Mbps
*.switch1.eth[0].bitrate = 1000Mbps
*.switch1.eth[1].bitrate = 2300Mbps
*.switch1.eth[2].bitrate = 2100Mbps
*.switch1.eth[3].bitrate = 2100Mbps
*.switch1.eth[4].bitrate = 1300Mbps
*.switch1.eth[5].bitrate = 1700Mbps
*.switch1.eth[6].bitrate = 1400Mbps
*.host2.eth[0].bitrate = 1000Mbps
*.switch2.eth[0].bitrate = 1000Mbps
*.switch2.eth[1].bitrate = 2300Mbps
*.switch2.eth[2].bitrate = 1700Mbps
*.switch2.eth[3].bitrate = 2100Mbps
*.switch2.eth[4].bitrate = 1400Mbps
*.switch2.eth[5].bitrate = 1900Mbps
*.switch2.eth[6].bitrate = 2200Mbps
*.switch2.eth[7].bitrate = 2300Mbps
*.switch2.eth[8].bitrate = 2400Mbps
*.host3.eth[0].bitrate = 1000Mbps
*.switch3.eth[0].bitrate = 1000Mbps
*.switch3.eth[1].bitrate = 1500Mbps
*.switch3.eth[2].bitrate = 1800Mbps
*.switch3.eth[3].bitrate = 2400Mbps
*.switch3.eth[4].bitrate = 1500Mbps
*.switch3.eth[5].bitrate = 2100Mbps
*.switch3.eth[6].bitrate = 2400Mbps
*.switch3.eth[7].bitrate = 1200Mbps
*.host4.eth[0].bitrate = 1000Mbps
*.switch4.eth[0].bitrate = 1000Mbps
*.switch4.eth[1].bitrate = 1500Mbps
*.switch4.eth[2].bitrate = 1400Mbps
*.switch4.eth[3].bitrate = 1300Mbps
*.switch4.eth[4].bitrate = 1300Mbps
*.switch4.eth[5].bitrate = 1500Mbps
*.switch4.eth[6].bitrate = 2300Mbps
*.switch4.eth[7].bitrate = 1400Mbps
*.switch4.eth[8].bitrate = 1600Mbps
*.switch4.eth[9].bitrate = 2200Mbps
*.switch4.eth[10].bitrate = 1600Mbps
*.switch4.eth[11].bitrate = 1300Mbps
*.switch4.eth[12].bitrate = 1800Mbps
*.host5.eth[0].bitrate = 1000Mbps
*.switch5.eth[0].bitrate = 1000Mbps
*.switch5.eth[1].bitrate = 1900Mbps
*.switch5.eth[2].bitrate = 2300Mbps
*.switch5.eth[3].bitrate = 1700Mbps
*.switch5.eth[4].bitrate = 2100Mbps
*.switch5.eth[5].bitrate = 1300Mbps
*.switch5.eth[6].bitrate = 1300Mbps
*.switch5.eth[7].bitrate = 1700Mbps
*.switch5.eth[8].bitrate = 1200Mbps
*.switch5.eth[9].bitrate = 1200Mbps
*.host6.eth[0].bitrate = 1000Mbps
*.switch6.eth[0].bitrate = 1000Mbps
*.switch6.eth[1].bitrate = 1800Mbps
*.switch6.eth[2].bitrate = 1400Mbps
*.switch6.eth[3].bitrate = 1300Mbps
*.switch6.eth[4].bitrate = 1200Mbps
*.switch6.eth[5].bitrate = 1400Mbps
*.switch6.eth[6].bitrate = 2400Mbps
*.switch6.eth[7].bitrate = 1800Mbps
*.switch6.eth[8].bitrate = 1200Mbps
*.switch6.eth[9].bitrate = 2200Mbps
*.switch6.eth[10].bitrate = 2400Mbps
*.switch6.eth[11].bitrate = 1600Mbps
*.host7.eth[0].bitrate = 1000Mbps
*.switch7.eth[0].bitrate = 1000Mbps
*.switch7.eth[1].bitrate = 2200Mbps
*.switch7.eth[2].bitrate = 1600Mbps
*.switch7.eth[3].bitrate = 1700Mbps
*.switch7.eth[4].bitrate = 2200Mbps
*.switch7.eth[5].bitrate = 2300Mbps
*.switch7.eth[6].bitrate = 2100Mbps
*.switch7.eth[7].bitrate = 2200Mbps
*.host8.eth[0].bitrate = 1000Mbps
*.switch8.eth[0].bitrate = 1000Mbps
*.switch8.eth[1].bitrate = 2100Mbps
*.switch8.eth[2].bitrate = 2400Mbps
*.switch8.eth[3].bitrate = 2200Mbps
*.switch8.eth[4].bitrate = 2400Mbps
*.switch8.eth[5].bitrate = 2100Mbps
*.switch8.eth[6].bitrate = 2200Mbps
*.host9.eth[0].bitrate = 1000Mbps
*.switch9.eth[0].bitrate = 1000Mbps
*.switch9.eth[1].bitrate = 1600Mbps
*.switch9.eth[2].bitrate = 1600Mbps
*.switch9.eth[3].bitrate = 2100Mbps
*.switch9.eth[4].bitrate = 2400Mbps
*.switch9.eth[5].bitrate = 1200Mbps
*.switch9.eth[6].bitrate = 1200Mbps
*.switch9.eth[7].bitrate = 2200Mbps
*.switch9.eth[8].bitrate = 2200Mbps
*.host0.numApps = 8
*.host0.app[0].typename = "UdpBasicApp"
*.host0.app[0].destAddresses = "host1"
*.host0.app[0].source.packetNameFormat = "%M-%m-%c"
*.host0.app[0].source.displayStringTextFormat = "sent %p pk (%l)"
*.host0.app[0].messageLength = 22B
*.host0.app[0].sendInterval = 1ms
*.host0.app[0].startTime = 100us
*.host0.app[0].stopTime = 1600us
*.host0.app[0].display-name = "type2_6"
*.host0.app[0].destPort = 1001
*.host0.app[1].typename = "UdpBasicApp"
*.host0.app[1].destAddresses = "host1"
*.host0.app[1].source.packetNameFormat = "%M-%m-%c"
*.host0.app[1].source.displayStringTextFormat = "sent %p pk (%l)"
*.host0.app[1].messageLength = 22B
*.host0.app[1].sendInterval = 1ms
*.host0.app[1].startTime = 3100us
*.host0.app[1].stopTime = 3600us
*.host0.app[1].display-name = "type2_6"
*.host0.app[1].destPort = 1001
*.host0.app[2].typename = "UdpBasicApp"
*.host0.app[2].destAddresses = "host1"
*.host0.app[2].source.packetNameFormat = "%M-%m-%c"
*.host0.app[2].source.displayStringTextFormat = "sent %p pk (%l)"
*.host0.app[2].messageLength = 22B
*.host0.app[2].sendInterval = 1ms
*.host0.app[2].startTime = 3900us
*.host0.app[2].stopTime = 4100us
*.host0.app[2].display-name = "type2_6"
*.host0.app[2].destPort = 1001
*.host0.app[3].typename = "UdpBasicApp"
*.host0.app[3].destAddresses = "host1"
*.host0.app[3].source.packetNameFormat = "%M-%m-%c"
*.host0.app[3].source.displayStringTextFormat = "sent %p pk (%l)"
*.host0.app[3].messageLength = 22B
*.host0.app[3].sendInterval = 1ms
*.host0.app[3].startTime = 4600us
*.host0.app[3].stopTime = 5500us
*.host0.app[3].display-name = "type2_6"
*.host0.app[3].destPort = 1001
*.host0.app[4].typename = "UdpBasicApp"
*.host0.app[4].destAddresses = "host1"
*.host0.app[4].source.packetNameFormat = "%M-%m-%c"
*.host0.app[4].source.displayStringTextFormat = "sent %p pk (%l)"
*.host0.app[4].messageLength = 22B
*.host0.app[4].sendInterval = 1ms
*.host0.app[4].startTime = 5600us
*.host0.app[4].stopTime = 5800us
*.host0.app[4].display-name = "type2_6"
*.host0.app[4].destPort = 1001
*.host0.app[5].typename = "UdpBasicApp"
*.host0.app[5].destAddresses = "host1"
*.host0.app[5].source.packetNameFormat = "%M-%m-%c"
*.host0.app[5].source.displayStringTextFormat = "sent %p pk (%l)"
*.host0.app[5].messageLength = 22B
*.host0.app[5].sendInterval = 1ms
*.host0.app[5].startTime = 6800us
*.host0.app[5].stopTime = 7400us
*.host0.app[5].display-name = "type2_6"
*.host0.app[5].destPort = 1001
*.host0.app[6].typename = "UdpBasicApp"
*.host0.app[6].destAddresses = "host1"
*.host0.app[6].source.packetNameFormat = "%M-%m-%c"
*.host0.app[6].source.displayStringTextFormat = "sent %p pk (%l)"
*.host0.app[6].messageLength = 22B
*.host0.app[6].sendInterval = 1ms
*.host0.app[6].startTime = 8600us
*.host0.app[6].stopTime = 10000us
*.host0.app[6].display-name = "type2_6"
*.host0.app[6].destPort = 1001
*.host0.app[7].typename = "UdpSinkApp"
*.host0.app[7].io.localPort = 1000
*.host1.numApps = 8
*.host1.app[0].typename = "UdpSinkApp"
*.host1.app[0].io.localPort = 1000
*.host1.app[1].typename = "UdpSinkApp"
*.host1.app[1].io.localPort = 1001
*.host1.app[2].typename = "UdpBasicApp"
*.host1.app[2].destAddresses = "host6"
*.host1.app[2].source.packetNameFormat = "%M-%m-%c"
*.host1.app[2].source.displayStringTextFormat = "sent %p pk (%l)"
*.host1.app[2].messageLength = 22B
*.host1.app[2].sendInterval = 1ms
*.host1.app[2].startTime = 0us
*.host1.app[2].stopTime = 100us
*.host1.app[2].display-name = "type2_8"
*.host1.app[2].destPort = 1002
*.host1.app[3].typename = "UdpBasicApp"
*.host1.app[3].destAddresses = "host6"
*.host1.app[3].source.packetNameFormat = "%M-%m-%c"
*.host1.app[3].source.displayStringTextFormat = "sent %p pk (%l)"
*.host1.app[3].messageLength = 22B
*.host1.app[3].sendInterval = 1ms
*.host1.app[3].startTime = 400us
*.host1.app[3].stopTime = 600us
*.host1.app[3].display-name = "type2_8"
*.host1.app[3].destPort = 1002
*.host1.app[4].typename = "UdpBasicApp"
*.host1.app[4].destAddresses = "host6"
*.host1.app[4].source.packetNameFormat = "%M-%m-%c"
*.host1.app[4].source.displayStringTextFormat = "sent %p pk (%l)"
*.host1.app[4].messageLength = 22B
*.host1.app[4].sendInterval = 1ms
*.host1.app[4].startTime = 1300us
*.host1.app[4].stopTime = 1400us
*.host1.app[4].display-name = "type2_8"
*.host1.app[4].destPort = 1002
*.host1.app[5].typename = "UdpBasicApp"
*.host1.app[5].destAddresses = "host6"
*.host1.app[5].source.packetNameFormat = "%M-%m-%c"
*.host1.app[5].source.displayStringTextFormat = "sent %p pk (%l)"
*.host1.app[5].messageLength = 22B
*.host1.app[5].sendInterval = 1ms
*.host1.app[5].startTime = 1900us
*.host1.app[5].stopTime = 2200us
*.host1.app[5].display-name = "type2_8"
*.host1.app[5].destPort = 1002
*.host1.app[6].typename = "UdpBasicApp"
*.host1.app[6].destAddresses = "host6"
*.host1.app[6].source.packetNameFormat = "%M-%m-%c"
*.host1.app[6].source.displayStringTextFormat = "sent %p pk (%l)"
*.host1.app[6].messageLength = 22B
*.host1.app[6].sendInterval = 1ms
*.host1.app[6].startTime = 3100us
*.host1.app[6].stopTime = 4800us
*.host1.app[6].display-name = "type2_8"
*.host1.app[6].destPort = 1002
*.host1.app[7].typename = "UdpBasicApp"
*.host1.app[7].destAddresses = "host6"
*.host1.app[7].source.packetNameFormat = "%M-%m-%c"
*.host1.app[7].source.displayStringTextFormat = "sent %p pk (%l)"
*.host1.app[7].messageLength = 22B
*.host1.app[7].sendInterval = 1ms
*.host1.app[7].startTime = 5500us
*.host1.app[7].stopTime = 7800us
*.host1.app[7].display-name = "type2_8"
*.host1.app[7].destPort = 1002
*.host2.numApps = 8
*.host2.app[0].typename = "UdpBasicApp"
*.host2.app[0].destAddresses = "host0"
*.host2.app[0].source.packetNameFormat = "%M-%m-%c"
*.host2.app[0].source.displayStringTextFormat = "sent %p pk (%l)"
*.host2.app[0].messageLength = 23B
*.host2.app[0].sendInterval = 1ms
*.host2.app[0].startTime = 400us
*.host2.app[0].stopTime = 600us
*.host2.app[0].display-name = "type2_9"
*.host2.app[0].destPort = 1000
*.host2.app[1].typename = "UdpBasicApp"
*.host2.app[1].destAddresses = "host0"
*.host2.app[1].source.packetNameFormat = "%M-%m-%c"
*.host2.app[1].source.displayStringTextFormat = "sent %p pk (%l)"
*.host2.app[1].messageLength = 23B
*.host2.app[1].sendInterval = 1ms
*.host2.app[1].startTime = 800us
*.host2.app[1].stopTime = 1200us
*.host2.app[1].display-name = "type2_9"
*.host2.app[1].destPort = 1000
*.host2.app[2].typename = "UdpBasicApp"
*.host2.app[2].destAddresses = "host0"
*.host2.app[2].source.packetNameFormat = "%M-%m-%c"
*.host2.app[2].source.displayStringTextFormat = "sent %p pk (%l)"
*.host2.app[2].messageLength = 23B
*.host2.app[2].sendInterval = 1ms
*.host2.app[2].startTime = 1900us
*.host2.app[2].stopTime = 2500us
*.host2.app[2].display-name = "type2_9"
*.host2.app[2].destPort = 1000
*.host2.app[3].typename = "UdpBasicApp"
*.host2.app[3].destAddresses = "host0"
*.host2.app[3].source.packetNameFormat = "%M-%m-%c"
*.host2.app[3].source.displayStringTextFormat = "sent %p pk (%l)"
*.host2.app[3].messageLength = 23B
*.host2.app[3].sendInterval = 1ms
*.host2.app[3].startTime = 2600us
*.host2.app[3].stopTime = 3600us
*.host2.app[3].display-name = "type2_9"
*.host2.app[3].destPort = 1000
*.host2.app[4].typename = "UdpBasicApp"
*.host2.app[4].destAddresses = "host0"
*.host2.app[4].source.packetNameFormat = "%M-%m-%c"
*.host2.app[4].source.displayStringTextFormat = "sent %p pk (%l)"
*.host2.app[4].messageLength = 23B
*.host2.app[4].sendInterval = 1ms
*.host2.app[4].startTime = 7200us
*.host2.app[4].stopTime = 7400us
*.host2.app[4].display-name = "type2_9"
*.host2.app[4].destPort = 1000
*.host2.app[5].typename = "UdpBasicApp"
*.host2.app[5].destAddresses = "host0"
*.host2.app[5].source.packetNameFormat = "%M-%m-%c"
*.host2.app[5].source.displayStringTextFormat = "sent %p pk (%l)"
*.host2.app[5].messageLength = 23B
*.host2.app[5].sendInterval = 1ms
*.host2.app[5].startTime = 7500us
*.host2.app[5].stopTime = 7900us
*.host2.app[5].display-name = "type2_9"
*.host2.app[5].destPort = 1000
*.host2.app[6].typename = "UdpBasicApp"
*.host2.app[6].destAddresses = "host0"
*.host2.app[6].source.packetNameFormat = "%M-%m-%c"
*.host2.app[6].source.displayStringTextFormat = "sent %p pk (%l)"
*.host2.app[6].messageLength = 23B
*.host2.app[6].sendInterval = 1ms
*.host2.app[6].startTime = 8000us
*.host2.app[6].stopTime = 8700us
*.host2.app[6].display-name = "type2_9"
*.host2.app[6].destPort = 1000
*.host2.app[7].typename = "UdpBasicApp"
*.host2.app[7].destAddresses = "host0"
*.host2.app[7].source.packetNameFormat = "%M-%m-%c"
*.host2.app[7].source.displayStringTextFormat = "sent %p pk (%l)"
*.host2.app[7].messageLength = 23B
*.host2.app[7].sendInterval = 1ms
*.host2.app[7].startTime = 9000us
*.host2.app[7].stopTime = 10000us
*.host2.app[7].display-name = "type2_9"
*.host2.app[7].destPort = 1000
*.host3.numApps = 10
*.host3.app[0].typename = "UdpSinkApp"
*.host3.app[0].io.localPort = 1000
*.host3.app[1].typename = "UdpSourceApp"
*.host3.app[1].io.destAddress = "host7"
*.host3.app[1].source.packetNameFormat = "%M-%m-%c"
*.host3.app[1].source.displayStringTextFormat = "sent %p pk (%l)"
*.host3.app[1].source.packetLength = 20B
*.host3.app[1].source.productionInterval = 1ms
*.host3.app[1].display-name = "type1_4"
*.host3.app[1].io.destPort = 1001
*.host3.app[2].typename = "UdpSinkApp"
*.host3.app[2].io.localPort = 1001
*.host3.app[3].typename = "UdpBasicApp"
*.host3.app[3].destAddresses = "host8"
*.host3.app[3].source.packetNameFormat = "%M-%m-%c"
*.host3.app[3].source.displayStringTextFormat = "sent %p pk (%l)"
*.host3.app[3].messageLength = 23B
*.host3.app[3].sendInterval = 1ms
*.host3.app[3].startTime = 0us
*.host3.app[3].stopTime = 700us
*.host3.app[3].display-name = "type2_4"
*.host3.app[3].destPort = 1001
*.host3.app[4].typename = "UdpBasicApp"
*.host3.app[4].destAddresses = "host8"
*.host3.app[4].source.packetNameFormat = "%M-%m-%c"
*.host3.app[4].source.displayStringTextFormat = "sent %p pk (%l)"
*.host3.app[4].messageLength = 23B
*.host3.app[4].sendInterval = 1ms
*.host3.app[4].startTime = 1500us
*.host3.app[4].stopTime = 1600us
*.host3.app[4].display-name = "type2_4"
*.host3.app[4].destPort = 1001
*.host3.app[5].typename = "UdpBasicApp"
*.host3.app[5].destAddresses = "host8"
*.host3.app[5].source.packetNameFormat = "%M-%m-%c"
*.host3.app[5].source.displayStringTextFormat = "sent %p pk (%l)"
*.host3.app[5].messageLength = 23B
*.host3.app[5].sendInterval = 1ms
*.host3.app[5].startTime = 3800us
*.host3.app[5].stopTime = 4400us
*.host3.app[5].display-name = "type2_4"
*.host3.app[5].destPort = 1001
*.host3.app[6].typename = "UdpBasicApp"
*.host3.app[6].destAddresses = "host8"
*.host3.app[6].source.packetNameFormat = "%M-%m-%c"
*.host3.app[6].source.displayStringTextFormat = "sent %p pk (%l)"
*.host3.app[6].messageLength = 23B
*.host3.app[6].sendInterval = 1ms
*.host3.app[6].startTime = 5400us
*.host3.app[6].stopTime = 6500us
*.host3.app[6].display-name = "type2_4"
*.host3.app[6].destPort = 1001
*.host3.app[7].typename = "UdpBasicApp"
*.host3.app[7].destAddresses = "host8"
*.host3.app[7].source.packetNameFormat = "%M-%m-%c"
*.host3.app[7].source.displayStringTextFormat = "sent %p pk (%l)"
*.host3.app[7].messageLength = 23B
*.host3.app[7].sendInterval = 1ms
*.host3.app[7].startTime = 7200us
*.host3.app[7].stopTime = 8100us
*.host3.app[7].display-name = "type2_4"
*.host3.app[7].destPort = 1001
*.host3.app[8].typename = "UdpBasicApp"
*.host3.app[8].destAddresses = "host8"
*.host3.app[8].source.packetNameFormat = "%M-%m-%c"
*.host3.app[8].source.displayStringTextFormat = "sent %p pk (%l)"
*.host3.app[8].messageLength = 23B
*.host3.app[8].sendInterval = 1ms
*.host3.app[8].startTime = 8400us
*.host3.app[8].stopTime = 8600us
*.host3.app[8].display-name = "type2_4"
*.host3.app[8].destPort = 1001
*.host3.app[9].typename = "UdpBasicApp"
*.host3.app[9].destAddresses = "host8"
*.host3.app[9].source.packetNameFormat = "%M-%m-%c"
*.host3.app[9].source.displayStringTextFormat = "sent %p pk (%l)"
*.host3.app[9].messageLength = 23B
*.host3.app[9].sendInterval = 1ms
*.host3.app[9].startTime = 9400us
*.host3.app[9].stopTime = 10000us
*.host3.app[9].display-name = "type2_4"
*.host3.app[9].destPort = 1001
*.host4.numApps = 8
*.host4.app[0].typename = "UdpBasicApp"
*.host4.app[0].destAddresses = "host6"
*.host4.app[0].source.packetNameFormat = "%M-%m-%c"
*.host4.app[0].source.displayStringTextFormat = "sent %p pk (%l)"
*.host4.app[0].messageLength = 18B
*.host4.app[0].sendInterval = 1ms
*.host4.app[0].startTime = 200us
*.host4.app[0].stopTime = 800us
*.host4.app[0].display-name = "type2_2"
*.host4.app[0].destPort = 1000
*.host4.app[1].typename = "UdpBasicApp"
*.host4.app[1].destAddresses = "host6"
*.host4.app[1].source.packetNameFormat = "%M-%m-%c"
*.host4.app[1].source.displayStringTextFormat = "sent %p pk (%l)"
*.host4.app[1].messageLength = 18B
*.host4.app[1].sendInterval = 1ms
*.host4.app[1].startTime = 900us
*.host4.app[1].stopTime = 2000us
*.host4.app[1].display-name = "type2_2"
*.host4.app[1].destPort = 1000
*.host4.app[2].typename = "UdpBasicApp"
*.host4.app[2].destAddresses = "host6"
*.host4.app[2].source.packetNameFormat = "%M-%m-%c"
*.host4.app[2].source.displayStringTextFormat = "sent %p pk (%l)"
*.host4.app[2].messageLength = 18B
*.host4.app[2].sendInterval = 1ms
*.host4.app[2].startTime = 2200us
*.host4.app[2].stopTime = 2400us
*.host4.app[2].display-name = "type2_2"
*.host4.app[2].destPort = 1000
*.host4.app[3].typename = "UdpBasicApp"
*.host4.app[3].destAddresses = "host6"
*.host4.app[3].source.packetNameFormat = "%M-%m-%c"
*.host4.app[3].source.displayStringTextFormat = "sent %p pk (%l)"
*.host4.app[3].messageLength = 18B
*.host4.app[3].sendInterval = 1ms
*.host4.app[3].startTime = 2500us
*.host4.app[3].stopTime = 3400us
*.host4.app[3].display-name = "type2_2"
*.host4.app[3].destPort = 1000
*.host4.app[4].typename = "UdpBasicApp"
*.host4.app[4].destAddresses = "host6"
*.host4.app[4].source.packetNameFormat = "%M-%m-%c"
*.host4.app[4].source.displayStringTextFormat = "sent %p pk (%l)"
*.host4.app[4].messageLength = 18B
*.host4.app[4].sendInterval = 1ms
*.host4.app[4].startTime = 3500us
*.host4.app[4].stopTime = 5000us
*.host4.app[4].display-name = "type2_2"
*.host4.app[4].destPort = 1000
*.host4.app[5].typename = "UdpBasicApp"
*.host4.app[5].destAddresses = "host6"
*.host4.app[5].source.packetNameFormat = "%M-%m-%c"
*.host4.app[5].source.displayStringTextFormat = "sent %p pk (%l)"
*.host4.app[5].messageLength = 18B
*.host4.app[5].sendInterval = 1ms
*.host4.app[5].startTime = 6000us
*.host4.app[5].stopTime = 8500us
*.host4.app[5].display-name = "type2_2"
*.host4.app[5].destPort = 1000
*.host4.app[6].typename = "UdpBasicApp"
*.host4.app[6].destAddresses = "host6"
*.host4.app[6].source.packetNameFormat = "%M-%m-%c"
*.host4.app[6].source.displayStringTextFormat = "sent %p pk (%l)"
*.host4.app[6].messageLength = 18B
*.host4.app[6].sendInterval = 1ms
*.host4.app[6].startTime = 8600us
*.host4.app[6].stopTime = 8700us
*.host4.app[6].display-name = "type2_2"
*.host4.app[6].destPort = 1000
*.host4.app[7].typename = "UdpBasicApp"
*.host4.app[7].destAddresses = "host6"
*.host4.app[7].source.packetNameFormat = "%M-%m-%c"
*.host4.app[7].source.displayStringTextFormat = "sent %p pk (%l)"
*.host4.app[7].messageLength = 18B
*.host4.app[7].sendInterval = 1ms
*.host4.app[7].startTime = 9700us
*.host4.app[7].stopTime = 10000us
*.host4.app[7].display-name = "type2_2"
*.host4.app[7].destPort = 1000
*.host5.numApps = 8
*.host5.app[0].typename = "UdpSourceApp"
*.host5.app[0].io.destAddress = "host7"
*.host5.app[0].source.packetNameFormat = "%M-%m-%c"
*.host5.app[0].source.displayStringTextFormat = "sent %p pk (%l)"
*.host5.app[0].source.packetLength = 13B
*.host5.app[0].source.productionInterval = 1ms
*.host5.app[0].display-name = "type1_1"
*.host5.app[0].io.destPort = 1000
*.host5.app[1].typename = "UdpSourceApp"
*.host5.app[1].io.destAddress = "host3"
*.host5.app[1].source.packetNameFormat = "%M-%m-%c"
*.host5.app[1].source.displayStringTextFormat = "sent %p pk (%l)"
*.host5.app[1].source.packetLength = 14B
*.host5.app[1].source.productionInterval = 1ms
*.host5.app[1].display-name = "type1_3"
*.host5.app[1].io.destPort = 1000
*.host5.app[2].typename = "UdpBasicApp"
*.host5.app[2].destAddresses = "host3"
*.host5.app[2].source.packetNameFormat = "%M-%m-%c"
*.host5.app[2].source.displayStringTextFormat = "sent %p pk (%l)"
*.host5.app[2].messageLength = 24B
*.host5.app[2].sendInterval = 1ms
*.host5.app[2].startTime = 300us
*.host5.app[2].stopTime = 1200us
*.host5.app[2].display-name = "type2_1"
*.host5.app[2].destPort = 1001
*.host5.app[3].typename = "UdpBasicApp"
*.host5.app[3].destAddresses = "host3"
*.host5.app[3].source.packetNameFormat = "%M-%m-%c"
*.host5.app[3].source.displayStringTextFormat = "sent %p pk (%l)"
*.host5.app[3].messageLength = 24B
*.host5.app[3].sendInterval = 1ms
*.host5.app[3].startTime = 2500us
*.host5.app[3].stopTime = 4200us
*.host5.app[3].display-name = "type2_1"
*.host5.app[3].destPort = 1001
*.host5.app[4].typename = "UdpBasicApp"
*.host5.app[4].destAddresses = "host3"
*.host5.app[4].source.packetNameFormat = "%M-%m-%c"
*.host5.app[4].source.displayStringTextFormat = "sent %p pk (%l)"
*.host5.app[4].messageLength = 24B
*.host5.app[4].sendInterval = 1ms
*.host5.app[4].startTime = 4300us
*.host5.app[4].stopTime = 5600us
*.host5.app[4].display-name = "type2_1"
*.host5.app[4].destPort = 1001
*.host5.app[5].typename = "UdpBasicApp"
*.host5.app[5].destAddresses = "host3"
*.host5.app[5].source.packetNameFormat = "%M-%m-%c"
*.host5.app[5].source.displayStringTextFormat = "sent %p pk (%l)"
*.host5.app[5].messageLength = 24B
*.host5.app[5].sendInterval = 1ms
*.host5.app[5].startTime = 6100us
*.host5.app[5].stopTime = 6400us
*.host5.app[5].display-name = "type2_1"
*.host5.app[5].destPort = 1001
*.host5.app[6].typename = "UdpBasicApp"
*.host5.app[6].destAddresses = "host3"
*.host5.app[6].source.packetNameFormat = "%M-%m-%c"
*.host5.app[6].source.displayStringTextFormat = "sent %p pk (%l)"
*.host5.app[6].messageLength = 24B
*.host5.app[6].sendInterval = 1ms
*.host5.app[6].startTime = 7600us
*.host5.app[6].stopTime = 10000us
*.host5.app[6].display-name = "type2_1"
*.host5.app[6].destPort = 1001
*.host5.app[7].typename = "UdpSinkApp"
*.host5.app[7].io.localPort = 1000
*.host6.numApps = 7
*.host6.app[0].typename = "UdpSinkApp"
*.host6.app[0].io.localPort = 1000
*.host6.app[1].typename = "UdpBasicApp"
*.host6.app[1].destAddresses = "host8"
*.host6.app[1].source.packetNameFormat = "%M-%m-%c"
*.host6.app[1].source.displayStringTextFormat = "sent %p pk (%l)"
*.host6.app[1].messageLength = 13B
*.host6.app[1].sendInterval = 1ms
*.host6.app[1].startTime = 1400us
*.host6.app[1].stopTime = 2100us
*.host6.app[1].display-name = "type2_5"
*.host6.app[1].destPort = 1002
*.host6.app[2].typename = "UdpBasicApp"
*.host6.app[2].destAddresses = "host8"
*.host6.app[2].source.packetNameFormat = "%M-%m-%c"
*.host6.app[2].source.displayStringTextFormat = "sent %p pk (%l)"
*.host6.app[2].messageLength = 13B
*.host6.app[2].sendInterval = 1ms
*.host6.app[2].startTime = 2400us
*.host6.app[2].stopTime = 3600us
*.host6.app[2].display-name = "type2_5"
*.host6.app[2].destPort = 1002
*.host6.app[3].typename = "UdpBasicApp"
*.host6.app[3].destAddresses = "host8"
*.host6.app[3].source.packetNameFormat = "%M-%m-%c"
*.host6.app[3].source.displayStringTextFormat = "sent %p pk (%l)"
*.host6.app[3].messageLength = 13B
*.host6.app[3].sendInterval = 1ms
*.host6.app[3].startTime = 5500us
*.host6.app[3].stopTime = 7800us
*.host6.app[3].display-name = "type2_5"
*.host6.app[3].destPort = 1002
*.host6.app[4].typename = "UdpBasicApp"
*.host6.app[4].destAddresses = "host8"
*.host6.app[4].source.packetNameFormat = "%M-%m-%c"
*.host6.app[4].source.displayStringTextFormat = "sent %p pk (%l)"
*.host6.app[4].messageLength = 13B
*.host6.app[4].sendInterval = 1ms
*.host6.app[4].startTime = 8300us
*.host6.app[4].stopTime = 9000us
*.host6.app[4].display-name = "type2_5"
*.host6.app[4].destPort = 1002
*.host6.app[5].typename = "UdpSinkApp"
*.host6.app[5].io.localPort = 1001
*.host6.app[6].typename = "UdpSinkApp"
*.host6.app[6].io.localPort = 1002
*.host7.numApps = 15
*.host7.app[0].typename = "UdpSinkApp"
*.host7.app[0].io.localPort = 1000
*.host7.app[1].typename = "UdpSourceApp"
*.host7.app[1].io.destAddress = "host8"
*.host7.app[1].source.packetNameFormat = "%M-%m-%c"
*.host7.app[1].source.displayStringTextFormat = "sent %p pk (%l)"
*.host7.app[1].source.packetLength = 13B
*.host7.app[1].source.productionInterval = 1ms
*.host7.app[1].display-name = "type1_2"
*.host7.app[1].io.destPort = 1000
*.host7.app[2].typename = "UdpSinkApp"
*.host7.app[2].io.localPort = 1001
*.host7.app[3].typename = "UdpSinkApp"
*.host7.app[3].io.localPort = 1002
*.host7.app[4].typename = "UdpBasicApp"
*.host7.app[4].destAddresses = "host5"
*.host7.app[4].source.packetNameFormat = "%M-%m-%c"
*.host7.app[4].source.displayStringTextFormat = "sent %p pk (%l)"
*.host7.app[4].messageLength = 24B
*.host7.app[4].sendInterval = 1ms
*.host7.app[4].startTime = 1400us
*.host7.app[4].stopTime = 1700us
*.host7.app[4].display-name = "type2_3"
*.host7.app[4].destPort = 1000
*.host7.app[5].typename = "UdpBasicApp"
*.host7.app[5].destAddresses = "host5"
*.host7.app[5].source.packetNameFormat = "%M-%m-%c"
*.host7.app[5].source.displayStringTextFormat = "sent %p pk (%l)"
*.host7.app[5].messageLength = 24B
*.host7.app[5].sendInterval = 1ms
*.host7.app[5].startTime = 2000us
*.host7.app[5].stopTime = 2300us
*.host7.app[5].display-name = "type2_3"
*.host7.app[5].destPort = 1000
*.host7.app[6].typename = "UdpBasicApp"
*.host7.app[6].destAddresses = "host5"
*.host7.app[6].source.packetNameFormat = "%M-%m-%c"
*.host7.app[6].source.displayStringTextFormat = "sent %p pk (%l)"
*.host7.app[6].messageLength = 24B
*.host7.app[6].sendInterval = 1ms
*.host7.app[6].startTime = 2400us
*.host7.app[6].stopTime = 3500us
*.host7.app[6].display-name = "type2_3"
*.host7.app[6].destPort = 1000
*.host7.app[7].typename = "UdpBasicApp"
*.host7.app[7].destAddresses = "host5"
*.host7.app[7].source.packetNameFormat = "%M-%m-%c"
*.host7.app[7].source.displayStringTextFormat = "sent %p pk (%l)"
*.host7.app[7].messageLength = 24B
*.host7.app[7].sendInterval = 1ms
*.host7.app[7].startTime = 3600us
*.host7.app[7].stopTime = 4200us
*.host7.app[7].display-name = "type2_3"
*.host7.app[7].destPort = 1000
*.host7.app[8].typename = "UdpBasicApp"
*.host7.app[8].destAddresses = "host5"
*.host7.app[8].source.packetNameFormat = "%M-%m-%c"
*.host7.app[8].source.displayStringTextFormat = "sent %p pk (%l)"
*.host7.app[8].messageLength = 24B
*.host7.app[8].sendInterval = 1ms
*.host7.app[8].startTime = 4500us
*.host7.app[8].stopTime = 4600us
*.host7.app[8].display-name = "type2_3"
*.host7.app[8].destPort = 1000
*.host7.app[9].typename = "UdpBasicApp"
*.host7.app[9].destAddresses = "host5"
*.host7.app[9].source.packetNameFormat = "%M-%m-%c"
*.host7.app[9].source.displayStringTextFormat = "sent %p pk (%l)"
*.host7.app[9].messageLength = 24B
*.host7.app[9].sendInterval = 1ms
*.host7.app[9].startTime = 5000us
*.host7.app[9].stopTime = 5200us
*.host7.app[9].display-name = "type2_3"
*.host7.app[9].destPort = 1000
*.host7.app[10].typename = "UdpBasicApp"
*.host7.app[10].destAddresses = "host5"
*.host7.app[10].source.packetNameFormat = "%M-%m-%c"
*.host7.app[10].source.displayStringTextFormat = "sent %p pk (%l)"
*.host7.app[10].messageLength = 24B
*.host7.app[10].sendInterval = 1ms
*.host7.app[10].startTime = 5800us
*.host7.app[10].stopTime = 7300us
*.host7.app[10].display-name = "type2_3"
*.host7.app[10].destPort = 1000
*.host7.app[11].typename = "UdpBasicApp"
*.host7.app[11].destAddresses = "host5"
*.host7.app[11].source.packetNameFormat = "%M-%m-%c"
*.host7.app[11].source.displayStringTextFormat = "sent %p pk (%l)"
*.host7.app[11].messageLength = 24B
*.host7.app[11].sendInterval = 1ms
*.host7.app[11].startTime = 7400us
*.host7.app[11].stopTime = 7700us
*.host7.app[11].display-name = "type2_3"
*.host7.app[11].destPort = 1000
*.host7.app[12].typename = "UdpBasicApp"
*.host7.app[12].destAddresses = "host5"
*.host7.app[12].source.packetNameFormat = "%M-%m-%c"
*.host7.app[12].source.displayStringTextFormat = "sent %p pk (%l)"
*.host7.app[12].messageLength = 24B
*.host7.app[12].sendInterval = 1ms
*.host7.app[12].startTime = 8100us
*.host7.app[12].stopTime = 8900us
*.host7.app[12].display-name = "type2_3"
*.host7.app[12].destPort = 1000
*.host7.app[13].typename = "UdpBasicApp"
*.host7.app[13].destAddresses = "host5"
*.host7.app[13].source.packetNameFormat = "%M-%m-%c"
*.host7.app[13].source.displayStringTextFormat = "sent %p pk (%l)"
*.host7.app[13].messageLength = 24B
*.host7.app[13].sendInterval = 1ms
*.host7.app[13].startTime = 9000us
*.host7.app[13].stopTime = 9100us
*.host7.app[13].display-name = "type2_3"
*.host7.app[13].destPort = 1000
*.host7.app[14].typename = "UdpBasicApp"
*.host7.app[14].destAddresses = "host5"
*.host7.app[14].source.packetNameFormat = "%M-%m-%c"
*.host7.app[14].source.displayStringTextFormat = "sent %p pk (%l)"
*.host7.app[14].messageLength = 24B
*.host7.app[14].sendInterval = 1ms
*.host7.app[14].startTime = 9600us
*.host7.app[14].stopTime = 10000us
*.host7.app[14].display-name = "type2_3"
*.host7.app[14].destPort = 1000
*.host8.numApps = 7
*.host8.app[0].typename = "UdpSinkApp"
*.host8.app[0].io.localPort = 1000
*.host8.app[1].typename = "UdpSinkApp"
*.host8.app[1].io.localPort = 1001
*.host8.app[2].typename = "UdpSinkApp"
*.host8.app[2].io.localPort = 1002
*.host8.app[3].typename = "UdpBasicApp"
*.host8.app[3].destAddresses = "host6"
*.host8.app[3].source.packetNameFormat = "%M-%m-%c"
*.host8.app[3].source.displayStringTextFormat = "sent %p pk (%l)"
*.host8.app[3].messageLength = 13B
*.host8.app[3].sendInterval = 1ms
*.host8.app[3].startTime = 100us
*.host8.app[3].stopTime = 800us
*.host8.app[3].display-name = "type2_7"
*.host8.app[3].destPort = 1001
*.host8.app[4].typename = "UdpBasicApp"
*.host8.app[4].destAddresses = "host6"
*.host8.app[4].source.packetNameFormat = "%M-%m-%c"
*.host8.app[4].source.displayStringTextFormat = "sent %p pk (%l)"
*.host8.app[4].messageLength = 13B
*.host8.app[4].sendInterval = 1ms