[General]
network = TSN_multipath
sim-time-limit = 100ms
*.macForwardingTableConfigurator.typename = ""
*.*.hasStreamRedundancy = true
*.*.bridging.streamRelay.typename = "StreamRelayLayer"
*.*.bridging.streamCoder.typename = "StreamCoderLayer"
*.streamRedundancyConfigurator.typename = "StreamRedundancyConfigurator"
*.host0.eth[0].bitrate = 1000Mbps
*.switch0.eth[0].bitrate = 1000Mbps
*.switch0.eth[1].bitrate = 2200Mbps
*.switch0.eth[2].bitrate = 2000Mbps
*.switch0.eth[3].bitrate = 1500Mbps
*.switch0.eth[4].bitrate = 2000Mbps
*.switch0.eth[5].bitrate = 2400Mbps
*.switch0.eth[6].bitrate = 1500Mbps
*.switch0.eth[7].bitrate = 1500Mbps
*.switch0.eth[8].bitrate = 1600Mbps
*.switch0.eth[9].bitrate = 2300Mbps
*.switch0.eth[10].bitrate = 1200Mbps
*.switch0.eth[11].bitrate = 2400Mbps
*.host1.eth[0].bitrate = 1000Mbps
*.switch1.eth[0].bitrate = 1000Mbps
*.switch1.eth[1].bitrate = 1800Mbps
*.switch1.eth[2].bitrate = 2400Mbps
*.switch1.eth[3].bitrate = 1300Mbps
*.switch1.eth[4].bitrate = 1800Mbps
*.switch1.eth[5].bitrate = 1700Mbps
*.switch1.eth[6].bitrate = 1500Mbps
*.switch1.eth[7].bitrate = 1300Mbps
*.switch1.eth[8].bitrate = 2100Mbps
*.switch1.eth[9].bitrate = 2000Mbps
*.switch1.eth[10].bitrate = 2300Mbps
*.host2.eth[0].bitrate = 1000Mbps
*.switch2.eth[0].bitrate = 1000Mbps
*.switch2.eth[1].bitrate = 2200Mbps
*.switch2.eth[2].bitrate = 1800Mbps
*.switch2.eth[3].bitrate = 2400Mbps
*.switch2.eth[4].bitrate = 2100Mbps
*.switch2.eth[5].bitrate = 1800Mbps
*.switch2.eth[6].bitrate = 1600Mbps
*.switch2.eth[7].bitrate = 1200Mbps
*.switch2.eth[8].bitrate = 1500Mbps
*.switch2.eth[9].bitrate = 1600Mbps
*.switch2.eth[10].bitrate = 2400Mbps
*.host3.eth[0].bitrate = 1000Mbps
*.switch3.eth[0].bitrate = 1000Mbps
*.switch3.eth[1].bitrate = 2400Mbps
*.switch3.eth[2].bitrate = 2100Mbps
*.switch3.eth[3].bitrate = 1500Mbps
*.switch3.eth[4].bitrate = 1300Mbps
*.switch3.eth[5].bitrate = 1500Mbps
*.switch3.eth[6].bitrate = 1600Mbps
*.switch3.eth[7].bitrate = 2100Mbps
*.switch3.eth[8].bitrate = 1300Mbps
*.switch3.eth[9].bitrate = 1200Mbps
*.switch3.eth[10].bitrate = 1900Mbps
*.switch3.eth[11].bitrate = 1900Mbps
*.host4.eth[0].bitrate = 1000Mbps
*.switch4.eth[0].bitrate = 1000Mbps
*.switch4.eth[1].bitrate = 2000Mbps
*.switch4.eth[2].bitrate = 1300Mbps
*.switch4.eth[3].bitrate = 1800Mbps
*.switch4.eth[4].bitrate = 1600Mbps
*.switch4.eth[5].bitrate = 2000Mbps
*.switch4.eth[6].bitrate = 1300Mbps
*.switch4.eth[7].bitrate = 1300Mbps
*.switch4.eth[8].bitrate = 2000Mbps
*.switch4.eth[9].bitrate = 2200Mbps
*.host5.eth[0].bitrate = 1000Mbps
*.switch5.eth[0].bitrate = 1000Mbps
*.switch5.eth[1].bitrate = 1500Mbps
*.switch5.eth[2].bitrate = 1800Mbps
*.switch5.eth[3].bitrate = 2100Mbps
*.switch5.eth[4].bitrate = 2000Mbps
*.switch5.eth[5].bitrate = 1500Mbps
*.switch5.eth[6].bitrate = 2100Mbps
*.switch5.eth[7].bitrate = 1600Mbps
*.switch5.eth[8].bitrate = 1500Mbps
*.switch5.eth[9].bitrate = 1300Mbps
*.switch5.eth[10].bitrate = 2200Mbps
*.switch5.eth[11].bitrate = 1300Mbps
*.switch5.eth[12].bitrate = 1300Mbps
*.host6.eth[0].bitrate = 1000Mbps
*.switch6.eth[0].bitrate = 1000Mbps
*.switch6.eth[1].bitrate = 2000Mbps
*.switch6.eth[2].bitrate = 1700Mbps
*.switch6.eth[3].bitrate = 1300Mbps
*.switch6.eth[4].bitrate = 1600Mbps
*.switch6.eth[5].bitrate = 2000Mbps
*.switch6.eth[6].bitrate = 1900Mbps
*.switch6.eth[7].bitrate = 1300Mbps
*.switch6.eth[8].bitrate = 2200Mbps
*.switch6.eth[9].bitrate = 1500Mbps
*.switch6.eth[10].bitrate = 2200Mbps
*.switch6.eth[11].bitrate = 1600Mbps
*.switch6.eth[12].bitrate = 2100Mbps
*.switch6.eth[13].bitrate = 1600Mbps
*.host7.eth[0].bitrate = 1000Mbps
*.switch7.eth[0].bitrate = 1000Mbps
*.switch7.eth[1].bitrate = 1600Mbps
*.switch7.eth[2].bitrate = 1200Mbps
*.switch7.eth[3].bitrate = 1500Mbps
*.switch7.eth[4].bitrate = 1500Mbps
*.switch7.eth[5].bitrate = 2300Mbps
*.switch7.eth[6].bitrate = 2400Mbps
*.switch7.eth[7].bitrate = 2000Mbps
*.switch7.eth[8].bitrate = 1300Mbps
*.host8.eth[0].bitrate = 1000Mbps
*.switch8.eth[0].bitrate = 1000Mbps
*.switch8.eth[1].bitrate = 1500Mbps
*.switch8.eth[2].bitrate = 1200Mbps
*.switch8.eth[3].bitrate = 1300Mbps
*.switch8.eth[4].bitrate = 2200Mbps
*.switch8.eth[5].bitrate = 1200Mbps
*.switch8.eth[6].bitrate = 2200Mbps
*.switch8.eth[7].bitrate = 1300Mbps
*.switch8.eth[8].bitrate = 2100Mbps
*.switch8.eth[9].bitrate = 2100Mbps
*.host9.eth[0].bitrate = 1000Mbps
*.switch9.eth[0].bitrate = 1000Mbps
*.switch9.eth[1].bitrate = 1900Mbps
*.switch9.eth[2].bitrate = 1300Mbps
*.switch9.eth[3].bitrate = 1600Mbps
*.switch9.eth[4].bitrate = 2100Mbps
*.switch9.eth[5].bitrate = 2400Mbps
*.switch9.eth[6].bitrate = 2300Mbps
*.switch9.eth[7].bitrate = 1600Mbps
*.host0.numApps = 2
*.host0.app[0].typename = "UdpSourceApp"
*.host0.app[0].io.destAddress = "host3"
*.host0.app[0].source.packetNameFormat = "%M-%m-%c"
*.host0.app[0].source.displayStringTextFormat = "sent %p pk (%l)"
*.host0.app[0].source.packetLength = 17B
*.host0.app[0].source.productionInterval = 1ms
*.host0.app[0].display-name = "type1_0"
*.host0.app[0].io.destPort = 1000
*.host0.app[1].typename = "UdpSinkApp"
*.host0.app[1].io.localPort = 1000
*.host1.numApps = 1
*.host1.app[0].typename = "UdpSinkApp"
*.host1.app[0].io.localPort = 1000
*.host2.numApps = 12
*.host2.app[0].typename = "UdpSinkApp"
*.host2.app[0].io.localPort = 1000
*.host2.app[1].typename = "UdpBasicApp"
*.host2.app[1].destAddresses = "host3"
*.host2.app[1].source.packetNameFormat = "%M-%m-%c"
*.host2.app[1].source.displayStringTextFormat = "sent %p pk (%l)"
*.host2.app[1].messageLength = 13B
*.host2.app[1].sendInterval = 1ms
*.host2.app[1].startTime = 13ms
*.host2.app[1].stopTime = 30ms
*.host2.app[1].display-name = "type2_2"
*.host2.app[1].destPort = 1001
*.host2.app[2].typename = "UdpBasicApp"
*.host2.app[2].destAddresses = "host3"
*.host2.app[2].source.packetNameFormat = "%M-%m-%c"
*.host2.app[2].source.displayStringTextFormat = "sent %p pk (%l)"
*.host2.app[2].messageLength = 13B
*.host2.app[2].sendInterval = 1ms
*.host2.app[2].startTime = 38ms
*.host2.app[2].stopTime = 59ms
*.host2.app[2].display-name = "type2_2"
*.host2.app[2].destPort = 1001
*.host2.app[3].typename = "UdpBasicApp"
*.host2.app[3].destAddresses = "host3"
*.host2.app[3].source.packetNameFormat = "%M-%m-%c"
*.host2.app[3].source.displayStringTextFormat = "sent %p pk (%l)"
*.host2.app[3].messageLength = 13B
*.host2.app[3].sendInterval = 1ms
*.host2.app[3].startTime = 65ms
*.host2.app[3].stopTime = 100ms
*.host2.app[3].display-name = "type2_2"
*.host2.app[3].destPort = 1001
*.host2.app[4].typename = "UdpSinkApp"
*.host2.app[4].io.localPort = 1001
*.host2.app[5].typename = "UdpBasicApp"
*.host2.app[5].destAddresses = "host6"
*.host2.app[5].source.packetNameFormat = "%M-%m-%c"
*.host2.app[5].source.displayStringTextFormat = "sent %p pk (%l)"
*.host2.app[5].messageLength = 16B
*.host2.app[5].sendInterval = 1ms
*.host2.app[5].startTime = 4ms
*.host2.app[5].stopTime = 8ms
*.host2.app[5].display-name = "type2_7"
*.host2.app[5].destPort = 1000
*.host2.app[6].typename = "UdpBasicApp"
*.host2.app[6].destAddresses = "host6"
*.host2.app[6].source.packetNameFormat = "%M-%m-%c"
*.host2.app[6].source.displayStringTextFormat = "sent %p pk (%l)"
*.host2.app[6].messageLength = 16B
*.host2.app[6].sendInterval = 1ms
*.host2.app[6].startTime = 12ms
*.host2.app[6].stopTime = 15ms
*.host2.app[6].display-name = "type2_7"
*.host2.app[6].destPort = 1000
*.host2.app[7].typename = "UdpBasicApp"
*.host2.app[7].destAddresses = "host6"
*.host2.app[7].source.packetNameFormat = "%M-%m-%c"
*.host2.app[7].source.displayStringTextFormat = "sent %p pk (%l)"
*.host2.app[7].messageLength = 16B
*.host2.app[7].sendInterval = 1ms
*.host2.app[7].startTime = 20ms
*.host2.app[7].stopTime = 34ms
*.host2.app[7].display-name = "type2_7"
*.host2.app[7].destPort = 1000
*.host2.app[8].typename = "UdpBasicApp"
*.host2.app[8].destAddresses = "host6"
*.host2.app[8].source.packetNameFormat = "%M-%m-%c"
*.host2.app[8].source.displayStringTextFormat = "sent %p pk (%l)"
*.host2.app[8].messageLength = 16B
*.host2.app[8].sendInterval = 1ms
*.host2.app[8].startTime = 37ms
*.host2.app[8].stopTime = 51ms
*.host2.app[8].display-name = "type2_7"
*.host2.app[8].destPort = 1000
*.host2.app[9].typename = "UdpBasicApp"
*.host2.app[9].destAddresses = "host6"
*.host2.app[9].source.packetNameFormat = "%M-%m-%c"
*.host2.app[9].source.displayStringTextFormat = "sent %p pk (%l)"
*.host2.app[9].messageLength = 16B
*.host2.app[9].sendInterval = 1ms
*.host2.app[9].startTime = 53ms
*.host2.app[9].stopTime = 60ms
*.host2.app[9].display-name = "type2_7"
*.host2.app[9].destPort = 1000
*.host2.app[10].typename = "UdpBasicApp"
*.host2.app[10].destAddresses = "host6"
*.host2.app[10].source.packetNameFormat = "%M-%m-%c"
*.host2.app[10].source.displayStringTextFormat = "sent %p pk (%l)"
*.host2.app[10].messageLength = 16B
*.host2.app[10].sendInterval = 1ms
*.host2.app[10].startTime = 75ms
*.host2.app[10].stopTime = 80ms
*.host2.app[10].display-name = "type2_7"
*.host2.app[10].destPort = 1000
*.host2.app[11].typename = "UdpBasicApp"
*.host2.app[11].destAddresses = "host6"
*.host2.app[11].source.packetNameFormat = "%M-%m-%c"
*.host2.app[11].source.displayStringTextFormat = "sent %p pk (%l)"
*.host2.app[11].messageLength = 16B
*.host2.app[11].sendInterval = 1ms
*.host2.app[11].startTime = 84ms
*.host2.app[11].stopTime = 96ms
*.host2.app[11].display-name = "type2_7"
*.host2.app[11].destPort = 1000
*.host3.numApps = 15
*.host3.app[0].typename = "UdpSinkApp"
*.host3.app[0].io.localPort = 1000
*.host3.app[1].typename = "UdpSourceApp"
*.host3.app[1].io.destAddress = "host7"
*.host3.app[1].source.packetNameFormat = "%M-%m-%c"
*.host3.app[1].source.displayStringTextFormat = "sent %p pk (%l)"
*.host3.app[1].source.packetLength = 24B
*.host3.app[1].source.productionInterval = 1ms
*.host3.app[1].display-name = "type1_4"
*.host3.app[1].io.destPort = 1000
*.host3.app[2].typename = "UdpSinkApp"
*.host3.app[2].io.localPort = 1001
*.host3.app[3].typename = "UdpBasicApp"
*.host3.app[3].destAddresses = "host5"
*.host3.app[3].source.packetNameFormat = "%M-%m-%c"
*.host3.app[3].source.displayStringTextFormat = "sent %p pk (%l)"
*.host3.app[3].messageLength = 17B
*.host3.app[3].sendInterval = 1ms
*.host3.app[3].startTime = 3ms
*.host3.app[3].stopTime = 20ms
*.host3.app[3].display-name = "type2_4"
*.host3.app[3].destPort = 1001
*.host3.app[4].typename = "UdpBasicApp"
*.host3.app[4].destAddresses = "host5"
*.host3.app[4].source.packetNameFormat = "%M-%m-%c"
*.host3.app[4].source.displayStringTextFormat = "sent %p pk (%l)"
*.host3.app[4].messageLength = 17B
*.host3.app[4].sendInterval = 1ms
*.host3.app[4].startTime = 32ms
*.host3.app[4].stopTime = 38ms
*.host3.app[4].display-name = "type2_4"
*.host3.app[4].destPort = 1001
*.host3.app[5].typename = "UdpBasicApp"
*.host3.app[5].destAddresses = "host5"
*.host3.app[5].source.packetNameFormat = "%M-%m-%c"
*.host3.app[5].source.displayStringTextFormat = "sent %p pk (%l)"
*.host3.app[5].messageLength = 17B
*.host3.app[5].sendInterval = 1ms
*.host3.app[5].startTime = 51ms
*.host3.app[5].stopTime = 59ms
*.host3.app[5].display-name = "type2_4"
*.host3.app[5].destPort = 1001
*.host3.app[6].typename = "UdpBasicApp"
*.host3.app[6].destAddresses = "host5"
*.host3.app[6].source.packetNameFormat = "%M-%m-%c"
*.host3.app[6].source.displayStringTextFormat = "sent %p pk (%l)"
*.host3.app[6].messageLength = 17B
*.host3.app[6].sendInterval = 1ms
*.host3.app[6].startTime = 65ms
*.host3.app[6].stopTime = 70ms
*.host3.app[6].display-name = "type2_4"
*.host3.app[6].destPort = 1001
*.host3.app[7].typename = "UdpBasicApp"
*.host3.app[7].destAddresses = "host5"
*.host3.app[7].source.packetNameFormat = "%M-%m-%c"
*.host3.app[7].source.displayStringTextFormat = "sent %p pk (%l)"
*.host3.app[7].messageLength = 17B
*.host3.app[7].sendInterval = 1ms
*.host3.app[7].startTime = 81ms
*.host3.app[7].stopTime = 100ms
*.host3.app[7].display-name = "type2_4"
*.host3.app[7].destPort = 1001
*.host3.app[8].typename = "UdpBasicApp"
*.host3.app[8].destAddresses = "host2"
*.host3.app[8].source.packetNameFormat = "%M-%m-%c"
*.host3.app[8].source.displayStringTextFormat = "sent %p pk (%l)"
*.host3.app[8].messageLength = 12B
*.host3.app[8].sendInterval = 1ms
*.host3.app[8].startTime = 0ms
*.host3.app[8].stopTime = 4ms
*.host3.app[8].display-name = "type2_6"
*.host3.app[8].destPort = 1001
*.host3.app[9].typename = "UdpBasicApp"
*.host3.app[9].destAddresses = "host2"
*.host3.app[9].source.packetNameFormat = "%M-%m-%c"
*.host3.app[9].source.displayStringTextFormat = "sent %p pk (%l)"
*.host3.app[9].messageLength = 12B
*.host3.app[9].sendInterval = 1ms
*.host3.app[9].startTime = 7ms
*.host3.app[9].stopTime = 14ms
*.host3.app[9].display-name = "type2_6"
*.host3.app[9].destPort = 1001
*.host3.app[10].typename = "UdpBasicApp"
*.host3.app[10].destAddresses = "host2"
*.host3.app[10].source.packetNameFormat = "%M-%m-%c"
*.host3.app[10].source.displayStringTextFormat = "sent %p pk (%l)"
*.host3.app[10].messageLength = 12B
*.host3.app[10].sendInterval = 1ms
*.host3.app[10].startTime = 20ms
*.host3.app[10].stopTime = 29ms
*.host3.app[10].display-name = "type2_6"
*.host3.app[10].destPort = 1001
*.host3.app[11].typename = "UdpBasicApp"
*.host3.app[11].destAddresses = "host2"
*.host3.app[11].source.packetNameFormat = "%M-%m-%c"
*.host3.app[11].source.displayStringTextFormat = "sent %p pk (%l)"
*.host3.app[11].messageLength = 12B
*.host3.app[11].sendInterval = 1ms
*.host3.app[11].startTime = 45ms
*.host3.app[11].stopTime = 51ms
*.host3.app[11].display-name = "type2_6"
*.host3.app[11].destPort = 1001
*.host3.app[12].typename = "UdpBasicApp"
*.host3.app[12].destAddresses = "host2"
*.host3.app[12].source.packetNameFormat = "%M-%m-%c"
*.host3.app[12].source.displayStringTextFormat = "sent %p pk (%l)"
*.host3.app[12].messageLength = 12B
*.host3.app[12].sendInterval = 1ms
*.host3.app[12].startTime = 56ms
*.host3.app[12].stopTime = 64ms
*.host3.app[12].display-name = "type2_6"
*.host3.app[12].destPort = 1001
*.host3.app[13].typename = "UdpBasicApp"
*.host3.app[13].destAddresses = "host2"
*.host3.app[13].source.packetNameFormat = "%M-%m-%c"
*.host3.app[13].source.displayStringTextFormat = "sent %p pk (%l)"
*.host3.app[13].messageLength = 12B
*.host3.app[13].sendInterval = 1ms
*.host3.app[13].startTime = 70ms
*.host3.app[13].stopTime = 81ms
*.host3.app[13].display-name = "type2_6"
*.host3.app[13].destPort = 1001
*.host3.app[14].typename = "UdpBasicApp"
*.host3.app[14].destAddresses = "host2"
*.host3.app[14].source.packetNameFormat = "%M-%m-%c"
*.host3.app[14].source.displayStringTextFormat = "sent %p pk (%l)"
*.host3.app[14].messageLength = 12B
*.host3.app[14].sendInterval = 1ms
*.host3.app[14].startTime = 85ms
*.host3.app[14].stopTime = 100ms
*.host3.app[14].display-name = "type2_6"
*.host3.app[14].destPort = 1001
*.host4.numApps = 0
*.host5.numApps = 13
*.host5.app[0].typename = "UdpSinkApp"
*.host5.app[0].io.localPort = 1000
*.host5.app[1].typename = "UdpBasicApp"
*.host5.app[1].destAddresses = "host7"
*.host5.app[1].source.packetNameFormat = "%M-%m-%c"
*.host5.app[1].source.displayStringTextFormat = "sent %p pk (%l)"
*.host5.app[1].messageLength = 16B
*.host5.app[1].sendInterval = 1ms
*.host5.app[1].startTime = 1ms
*.host5.app[1].stopTime = 17ms
*.host5.app[1].display-name = "type2_3"
*.host5.app[1].destPort = 1001
*.host5.app[2].typename = "UdpBasicApp"
*.host5.app[2].destAddresses = "host7"
*.host5.app[2].source.packetNameFormat = "%M-%m-%c"
*.host5.app[2].source.displayStringTextFormat = "sent %p pk (%l)"
*.host5.app[2].messageLength = 16B
*.host5.app[2].sendInterval = 1ms
*.host5.app[2].startTime = 21ms
*.host5.app[2].stopTime = 29ms
*.host5.app[2].display-name = "type2_3"
*.host5.app[2].destPort = 1001
*.host5.app[3].typename = "UdpBasicApp"
*.host5.app[3].destAddresses = "host7"
*.host5.app[3].source.packetNameFormat = "%M-%m-%c"
*.host5.app[3].source.displayStringTextFormat = "sent %p pk (%l)"
*.host5.app[3].messageLength = 16B
*.host5.app[3].sendInterval = 1ms
*.host5.app[3].startTime = 39ms
*.host5.app[3].stopTime = 43ms
*.host5.app[3].display-name = "type2_3"
*.host5.app[3].destPort = 1001
*.host5.app[4].typename = "UdpBasicApp"
*.host5.app[4].destAddresses = "host7"
*.host5.app[4].source.packetNameFormat = "%M-%m-%c"
*.host5.app[4].source.displayStringTextFormat = "sent %p pk (%l)"
*.host5.app[4].messageLength = 16B
*.host5.app[4].sendInterval = 1ms
*.host5.app[4].startTime = 72ms
*.host5.app[4].stopTime = 75ms
*.host5.app[4].display-name = "type2_3"
*.host5.app[4].destPort = 1001
*.host5.app[5].typename = "UdpBasicApp"
*.host5.app[5].destAddresses = "host7"
*.host5.app[5].source.packetNameFormat = "%M-%m-%c"
*.host5.app[5].source.displayStringTextFormat = "sent %p pk (%l)"
*.host5.app[5].messageLength = 16B
*.host5.app[5].sendInterval = 1ms
*.host5.app[5].startTime = 81ms
*.host5.app[5].stopTime = 100ms
*.host5.app[5].display-name = "type2_3"
*.host5.app[5].destPort = 1001
*.host5.app[6].typename = "UdpSinkApp"
*.host5.app[6].io.localPort = 1001
*.host5.app[7].typename = "UdpBasicApp"
*.host5.app[7].destAddresses = "host8"
*.host5.app[7].source.packetNameFormat = "%M-%m-%c"
*.host5.app[7].source.displayStringTextFormat = "sent %p pk (%l)"
*.host5.app[7].messageLength = 16B
*.host5.app[7].sendInterval = 1ms
*.host5.app[7].startTime = 0ms
*.host5.app[7].stopTime = 1ms
*.host5.app[7].display-name = "type2_5"
*.host5.app[7].destPort = 1000
*.host5.app[8].typename = "UdpBasicApp"
*.host5.app[8].destAddresses = "host8"
*.host5.app[8].source.packetNameFormat = "%M-%m-%c"
*.host5.app[8].source.displayStringTextFormat = "sent %p pk (%l)"
*.host5.app[8].messageLength = 16B
*.host5.app[8].sendInterval = 1ms
*.host5.app[8].startTime = 2ms
*.host5.app[8].stopTime = 26ms
*.host5.app[8].display-name = "type2_5"
*.host5.app[8].destPort = 1000
*.host5.app[9].typename = "UdpBasicApp"
*.host5.app[9].destAddresses = "host8"
*.host5.app[9].source.packetNameFormat = "%M-%m-%c"
*.host5.app[9].source.displayStringTextFormat = "sent %p pk (%l)"
*.host5.app[9].messageLength = 16B
*.host5.app[9].sendInterval = 1ms
*.host5.app[9].startTime = 32ms
*.host5.app[9].stopTime = 37ms
*.host5.app[9].display-name = "type2_5"
*.host5.app[9].destPort = 1000
*.host5.app[10].typename = "UdpBasicApp"
*.host5.app[10].destAddresses = "host8"
*.host5.app[10].source.packetNameFormat = "%M-%m-%c"
*.host5.app[10].source.displayStringTextFormat = "sent %p pk (%l)"
*.host5.app[10].messageLength = 16B
*.host5.app[10].sendInterval = 1ms
*.host5.app[10].startTime = 42ms
*.host5.app[10].stopTime = 57ms
*.host5.app[10].display-name = "type2_5"
*.host5.app[10].destPort = 1000
*.host5.app[11].typename = "UdpBasicApp"
*.host5.app[11].destAddresses = "host8"
*.host5.app[11].source.packetNameFormat = "%M-%m-%c"
*.host5.app[11].source.displayStringTextFormat = "sent %p pk (%l)"
*.host5.app[11].messageLength = 16B
*.host5.app[11].sendInterval = 1ms
*.host5.app[11].startTime = 59ms
*.host5.app[11].stopTime = 60ms
*.host5.app[11].display-name = "type2_5"
*.host5.app[11].destPort = 1000
*.host5.app[12].typename = "UdpBasicApp"
*.host5.app[12].destAddresses = "host8"
*.host5.app[12].source.packetNameFormat = "%M-%m-%c"
*.host5.app[12].source.displayStringTextFormat = "sent %p pk (%l)"
*.host5.app[12].messageLength = 16B
*.host5.app[12].sendInterval = 1ms
*.host5.app[12].startTime = 82ms
*.host5.app[12].stopTime = 85ms
*.host5.app[12].display-name = "type2_5"
*.host5.app[12].destPort = 1000
*.host6.numApps = 7
*.host6.app[0].typename = "UdpBasicApp"
*.host6.app[0].destAddresses = "host9"
*.host6.app[0].source.packetNameFormat = "%M-%m-%c"
*.host6.app[0].source.displayStringTextFormat = "sent %p pk (%l)"
*.host6.app[0].messageLength = 22B
*.host6.app[0].sendInterval = 1ms
*.host6.app[0].startTime = 3ms
*.host6.app[0].stopTime = 19ms
*.host6.app[0].display-name = "type2_0"
*.host6.app[0].destPort = 1000
*.host6.app[1].typename = "UdpBasicApp"
*.host6.app[1].destAddresses = "host9"
*.host6.app[1].source.packetNameFormat = "%M-%m-%c"
*.host6.app[1].source.displayStringTextFormat = "sent %p pk (%l)"
*.host6.app[1].messageLength = 22B
*.host6.app[1].sendInterval = 1ms
*.host6.app[1].startTime = 20ms
*.host6.app[1].stopTime = 22ms
*.host6.app[1].display-name = "type2_0"
*.host6.app[1].destPort = 1000
*.host6.app[2].typename = "UdpBasicApp"
*.host6.app[2].destAddresses = "host9"
*.host6.app[2].source.packetNameFormat = "%M-%m-%c"
*.host6.app[2].source.displayStringTextFormat = "sent %p pk (%l)"
*.host6.app[2].messageLength = 22B
*.host6.app[2].sendInterval = 1ms
*.host6.app[2].startTime = 26ms
*.host6.app[2].stopTime = 46ms
*.host6.app[2].display-name = "type2_0"
*.host6.app[2].destPort = 1000
*.host6.app[3].typename = "UdpBasicApp"
*.host6.app[3].destAddresses = "host9"
*.host6.app[3].source.packetNameFormat = "%M-%m-%c"
*.host6.app[3].source.displayStringTextFormat = "sent %p pk (%l)"
*.host6.app[3].messageLength = 22B
*.host6.app[3].sendInterval = 1ms
*.host6.app[3].startTime = 56ms
*.host6.app[3].stopTime = 68ms
*.host6.app[3].display-name = "type2_0"
*.host6.app[3].destPort = 1000
*.host6.app[4].typename = "UdpBasicApp"
*.host6.app[4].destAddresses = "host9"
*.host6.app[4].source.packetNameFormat = "%M-%m-%c"
*.host6.app[4].source.displayStringTextFormat = "sent %p pk (%l)"
*.host6.app[4].messageLength = 22B
*.host6.app[4].sendInterval = 1ms
*.host6.app[4].startTime = 85ms
*.host6.app[4].stopTime = 100ms
*.host6.app[4].display-name = "type2_0"
*.host6.app[4].destPort = 1000
*.host6.app[5].typename = "UdpSinkApp"
*.host6.app[5].io.localPort = 1000
*.host6.app[6].typename = "UdpSinkApp"
*.host6.app[6].io.localPort = 1001
*.host7.numApps = 7
*.host7.app[0].typename = "UdpSourceApp"
*.host7.app[0].io.destAddress = "host0"
*.host7.app[0].source.packetNameFormat = "%M-%m-%c"
*.host7.app[0].source.displayStringTextFormat = "sent %p pk (%l)"
*.host7.app[0].source.packetLength = 19B
*.host7.app[0].source.productionInterval = 1ms
*.host7.app[0].display-name = "type1_2"
*.host7.app[0].io.destPort = 1000
*.host7.app[1].typename = "UdpSourceApp"
*.host7.app[1].io.destAddress = "host1"
*.host7.app[1].source.packetNameFormat = "%M-%m-%c"
*.host7.app[1].source.displayStringTextFormat = "sent %p pk (%l)"
*.host7.app[1].source.packetLength = 12B
*.host7.app[1].source.productionInterval = 1ms
*.host7.app[1].display-name = "type1_3"
*.host7.app[1].io.destPort = 1000
*.host7.app[2].typename = "UdpSinkApp"
*.host7.app[2].io.localPort = 1000
*.host7.app[3].typename = "UdpBasicApp"
*.host7.app[3].destAddresses = "host2"
*.host7.app[3].source.packetNameFormat = "%M-%m-%c"
*.host7.app[3].source.displayStringTextFormat = "sent %p pk (%l)"
*.host7.app[3].messageLength = 18B
*.host7.app[3].sendInterval = 1ms
*.host7.app[3].startTime = 6ms
*.host7.app[3].stopTime = 7ms
*.host7.app[3].display-name = "type2_1"
*.host7.app[3].destPort = 1000
*.host7.app[4].typename = "UdpBasicApp"
*.host7.app[4].destAddresses = "host2"
*.host7.app[4].source.packetNameFormat = "%M-%m-%c"
*.host7.app[4].source.displayStringTextFormat = "sent %p pk (%l)"
*.host7.app[4].messageLength = 18B
*.host7.app[4].sendInterval = 1ms
*.host7.app[4].startTime = 8ms
*.host7.app[4].stopTime = 13ms
*.host7.app[4].display-name = "type2_1"
*.host7.app[4].destPort = 1000
*.host7.app[5].typename = "UdpBasicApp"
*.host7.app[5].destAddresses = "host2"
*.host7.app[5].source.packetNameFormat = "%M-%m-%c"
*.host7.app[5].source.displayStringTextFormat = "sent %p pk (%l)"
*.host7.app[5].messageLength = 18B
*.host7.app[5].sendInterval = 1ms
*.host7.app[5].startTime = 60ms
*.host7.app[5].stopTime = 68ms
*.host7.app[5].display-name = "type2_1"
*.host7.app[5].destPort = 1000
*.host7.app[6].typename = "UdpSinkApp"
*.host7.app[6].io.localPort = 1001
*.host8.numApps = 6
*.host8.app[0].typename = "UdpSourceApp"
*.host8.app[0].io.destAddress = "host5"
*.host8.app[0].source.packetNameFormat = "%M-%m-%c"
*.host8.app[0].source.displayStringTextFormat = "sent %p pk (%l)"
*.host8.app[0].source.packetLength = 20B
*.host8.app[0].source.productionInterval = 1ms
*.host8.app[0].display-name = "type1_1"
*.host8.app[0].io.destPort = 1000
*.host8.app[1].typename = "UdpSinkApp"
*.host8.app[1].io.localPort = 1000
*.host8.app[2].typename = "UdpBasicApp"
*.host8.app[2].destAddresses = "host9"
*.host8.app[2].source.packetNameFormat = "%M-%m-%c"
*.host8.app[2].source.displayStringTextFormat = "sent %p pk (%l)"
*.host8.app[2].messageLength = 22B
*.host8.app[2].sendInterval = 1ms
*.host8.app[2].startTime = 39ms
*.host8.app[2].stopTime = 46ms
*.host8.app[2].display-name = "type2_8"
*.host8.app[2].destPort = 1001
*.host8.app[3].typename = "UdpBasicApp"
*.host8.app[3].destAddresses = "host9"
*.host8.app[3].source.packetNameFormat = "%M-%m-%c"
*.host8.app[3].source.displayStringTextFormat = "sent %p pk (%l)"
*.host8.app[3].messageLength = 22B
*.host8.app[3].sendInterval = 1ms
*.host8.app[3].startTime = 73ms
*.host8.app[3].stopTime = 80ms
*.host8.app[3].display-name = "type2_8"
*.host8.app[3].destPort = 1001
*.host8.app[4].typename = "UdpBasicApp"
*.host8.app[4].destAddresses = "host9"
*.host8.app[4].source.packetNameFormat = "%M-%m-%c"
*.host8.app[4].source.displayStringTextFormat = "sent %p pk (%l)"
*.host8.app[4].messageLength = 22B
*.host8.app[4].sendInterval = 1ms
*.host8.app[4].startTime = 81ms
*.host8.app[4].stopTime = 86ms
*.host8.app[4].display-name = "type2_8"
*.host8.app[4].destPort = 1001
*.host8.app[5].typename = "UdpBasicApp"
*.host8.app[5].destAddresses = "host9"
*.host8.app[5].source.packetNameFormat = "%M-%m-%c"
*.host8.app[5].source.displayStringTextFormat = "sent %p pk (%l)"
*.host8.app[5].messageLength = 22B
*.host8.app[5].sendInterval = 1ms
*.host8.app[5].startTime = 89ms
*.host8.app[5].stopTime = 93ms
*.host8.app[5].display-name = "type2_8"
*.host8.app[5].destPort = 1001
*.host9.numApps = 9
*.host9.app[0].typename = "UdpSinkApp"
*.host9.app[0].io.localPort = 1000
*.host9.app[1].typename = "UdpSinkApp"
*.host9.app[1].io.localPort = 1001
*.host9.app[2].typename = "UdpBasicApp"
*.host9.app[2].destAddresses = "host6"
*.host9.app[2].source.packetNameFormat = "%M-%m-%c"
*.host9.app[2].source.displayStringTextFormat = "sent %p pk (%l)"
*.host9.app[2].messageLength = 15B
*.host9.app[2].sendInterval = 1ms
*.host9.app[2].startTime = 0ms
*.host9.app[2].stopTime = 10ms
*.host9.app[2].display-name = "type2_9"
*.host9.app[2].destPort = 1001
*.host9.app[3].typename = "UdpBasicApp"
*.host9.app[3].destAddresses = "host6"
*.host9.app[3].source.packetNameFormat = "%M-%m-%c"
*.host9.app[3].source.displayStringTextFormat = "sent %p pk (%l)"
*.host9.app[3].messageLength = 15B
*.host9.app[3].sendInterval = 1ms
*.host9.app[3].startTime = 13ms
*.host9.app[3].stopTime = 16ms
*.host9.app[3].display-name = "type2_9"
*.host9.app[3].destPort = 1001
*.host9.app[4].typename = "UdpBasicApp"
*.host9.app[4].destAddresses = "host6"
*.host9.app[4].source.packetNameFormat = "%M-%m-%c"
*.host9.app[4].source.displayStringTextFormat = "sent %p pk (%l)"
*.host9.app[4].messageLength = 15B
*.host9.app[4].sendInterval = 1ms
*.host9.app[4].startTime = 35ms
*.host9.app[4].stopTime = 41ms
*.host9.app[4].display-name = "type2_9"
*.host9.app[4].destPort = 1001
*.host9.app[5].typename = "UdpBasicApp"
*.host9.app[5].destAddresses = "host6"
*.host9.app[5].source.packetNameFormat = "%M-%m-%c"
*.host9.app[5].source.displayStringTextFormat = "sent %p pk (%l)"
*.host9.app[5].messageLength = 15B
*.host9.app[5].sendInterval = 1ms
*.host9.app[5].startTime = 42ms
*.host9.app[5].stopTime = 44ms
*.host9.app[5].display-name = "type2_9"
*.host9.app[5].destPort = 1001
*.host9.app[6].typename = "UdpBasicApp"
*.host9.app[6].destAddresses = "host6"
*.host9.app[6].source.packetNameFormat = "%M-%m-%c"
*.host9.app[6].source.displayStringTextFormat = "sent %p pk (%l)"
*.host9.app[6].messageLength = 15B
*.host9.app[6].sendInterval = 1ms
*.host9.app[6].startTime = 53ms
*.host9.app[6].stopTime = 64ms
*.host9.app[6].display-name = "type2_9"
*.host9.app[6].destPort = 1001
*.host9.app[7].typename = "UdpBasicApp"
*.host9.app[7].destAddresses = "host6"
*.host9.app[7].source.packetNameFormat = "%M-%m-%c"
*.host9.app[7].source.displayStringTextFormat = "sent %p pk (%l)"
*.host9.app[7].messageLength = 15B
*.host9.app[7].sendInterval = 1ms
*.host9.app[7].startTime = 65ms
*.host9.app[7].stopTime = 77ms
*.host9.app[7].display-name = "type2_9"
*.host9.app[7].destPort = 1001
*.host9.app[8].typename = "UdpBasicApp"
*.host9.app[8].destAddresses = "host6"
*.host9.app[8].source.packetNameFormat = "%M-%m-%c"
*.host9.app[8].source.displayStringTextFormat = "sent %p pk (%l)"
*.host9.app[8].messageLength = 15B
*.host9.app[8].sendInterval = 1ms
*.host9.app[8].startTime = 84ms
*.host9.app[8].stopTime = 93ms
*.host9.app[8].display-name = "type2_9"
*.host9.app[8].destPort = 1001
*.streamRedundancyConfigurator.configuration = [
	{
		name: "S1-0",
		packetFilter: "*-type1_0-*",
		source: "host0",
		destination: "host3",
		trees: [[["host0", "switch0", "switch2", "switch3", "host3"]]]
	},
	{
		name: "S1-1",
		packetFilter: "*-type1_1-*",
		source: "host8",
		destination: "host5",
		trees: [[["host8", "switch8", "switch5", "host5"]]]
	},
	{
		name: "S1-2",
		packetFilter: "*-type1_2-*",
		source: "host7",
		destination: "host0",
		trees: [[["host7", "switch7", "switch0", "host0"]]]
	},
	{
		name: "S1-3",
		packetFilter: "*-type1_3-*",
		source: "host7",
		destination: "host1",
		trees: [[["host7", "switch7", "switch5", "switch1", "host1"]]]
	},
	{
		name: "S1-4",
		packetFilter: "*-type1_4-*",
		source: "host3",
		destination: "host7",
		trees: [[["host3", "switch3", "switch7", "host7"]]]
	},
	{
		name: "S2-0",
		packetFilter: "*-type2_0-*",
		source: "host6",
		destination: "host9",
		trees: [[["host6",
	 "switch6",
	 "switch1",
	 "switch2",
	 "switch3",
	 "switch4",
	 "switch8",
	 "switch5",
	 "switch9",
	 "host9"]]]
	},
	{
		name: "S2-1",
		packetFilter: "*-type2_1-*",
		source: "host7",
		destination: "host2",
		trees: [[["host7", "switch7", "switch0", "switch5", "switch2", "host2"]]]
	},
	{
		name: "S2-2",
		packetFilter: "*-type2_2-*",
		source: "host2",
		destination: "host3",