[General]
network = TSN_multipath
sim-time-limit = 100ms
*.macForwardingTableConfigurator.typename = ""
*.*.hasStreamRedundancy = true
*.*.bridging.streamRelay.typename = "StreamRelayLayer"
*.*.bridging.streamCoder.typename = "StreamCoderLayer"
*.streamRedundancyConfigurator.typename = "StreamRedundancyConfigurator"
*.host0.eth[0].bitrate = 1000Mbps
*.switch0.eth[0].bitrate = 1000Mbps
*.switch0.eth[1].bitrate = 1200Mbps
*.switch0.eth[2].bitrate = 1200Mbps
*.switch0.eth[3].bitrate = 1900Mbps
*.switch0.eth[4].bitrate = 2000Mbps
*.switch0.eth[5].bitrate = 1500Mbps
*.host1.eth[0].bitrate = 1000Mbps
*.switch1.eth[0].bitrate = 1000Mbps
*.switch1.eth[1].bitrate = 1200Mbps
*.switch1.eth[2].bitrate = 1900Mbps
*.switch1.eth[3].bitrate = 2100Mbps
*.switch1.eth[4].bitrate = 1900Mbps
*.host2.eth[0].bitrate = 1000Mbps
*.switch2.eth[0].bitrate = 1000Mbps
*.switch2.eth[1].bitrate = 1200Mbps
*.switch2.eth[2].bitrate = 2000Mbps
*.switch2.eth[3].bitrate = 1200Mbps
*.host3.eth[0].bitrate = 1000Mbps
*.switch3.eth[0].bitrate = 1000Mbps
*.switch3.eth[1].bitrate = 2100Mbps
*.switch3.eth[2].bitrate = 1200Mbps
*.switch3.eth[3].bitrate = 1500Mbps
*.switch3.eth[4].bitrate = 1600Mbps
*.switch3.eth[5].bitrate = 1400Mbps
*.host4.eth[0].bitrate = 1000Mbps
*.switch4.eth[0].bitrate = 1000Mbps
*.switch4.eth[1].bitrate = 1600Mbps
*.switch4.eth[2].bitrate = 1900Mbps
*.switch4.eth[3].bitrate = 1400Mbps
*.host0.numApps = 1
*.host0.app[0].typename = "UdpSinkApp"
*.host0.app[0].io.localPort = 1000
*.host1.numApps = 4
*.host1.app[0].typename = "UdpBasicApp"
*.host1.app[0].destAddresses = "host4"
*.host1.app[0].source.packetNameFormat = "%M-%m-%c"
*.host1.app[0].source.displayStringTextFormat = "sent %p pk (%l)"
*.host1.app[0].messageLength = 21B
*.host1.app[0].sendInterval = 1ms
*.host1.app[0].startTime = 0ms
*.host1.app[0].stopTime = 8ms
*.host1.app[0].display-name = "type2_0"
*.host1.app[0].destPort = 1000
*.host1.app[1].typename = "UdpBasicApp"
*.host1.app[1].destAddresses = "host4"
*.host1.app[1].source.packetNameFormat = "%M-%m-%c"
*.host1.app[1].source.displayStringTextFormat = "sent %p pk (%l)"
*.host1.app[1].messageLength = 21B
*.host1.app[1].sendInterval = 1ms
*.host1.app[1].startTime = 25ms
*.host1.app[1].stopTime = 64ms
*.host1.app[1].display-name = "type2_0"
*.host1.app[1].destPort = 1000
*.host1.app[2].typename = "UdpBasicApp"
*.host1.app[2].destAddresses = "host4"
*.host1.app[2].source.packetNameFormat = "%M-%m-%c"
*.host1.app[2].source.displayStringTextFormat = "sent %p pk (%l)"
*.host1.app[2].messageLength = 21B
*.host1.app[2].sendInterval = 1ms
*.host1.app[2].startTime = 73ms
*.host1.app[2].stopTime = 76ms
*.host1.app[2].display-name = "type2_0"
*.host1.app[2].destPort = 1000
*.host1.app[3].typename = "UdpBasicApp"
*.host1.app[3].destAddresses = "host4"
*.host1.app[3].source.packetNameFormat = "%M-%m-%c"
*.host1.app[3].source.displayStringTextFormat = "sent %p pk (%l)"
*.host1.app[3].messageLength = 21B
*.host1.app[3].sendInterval = 1ms
*.host1.app[3].startTime = 84ms
*.host1.app[3].stopTime = 100ms
*.host1.app[3].display-name = "type2_0"
*.host1.app[3].destPort = 1000
*.host2.numApps = 4
*.host2.app[0].typename = "UdpBasicApp"
*.host2.app[0].destAddresses = "host3"
*.host2.app[0].source.packetNameFormat = "%M-%m-%c"
*.host2.app[0].source.displayStringTextFormat = "sent %p pk (%l)"
*.host2.app[0].messageLength = 21B
*.host2.app[0].sendInterval = 1ms
*.host2.app[0].startTime = 7ms
*.host2.app[0].stopTime = 53ms
*.host2.app[0].display-name = "type2_1"
*.host2.app[0].destPort = 1000
*.host2.app[1].typename = "UdpBasicApp"
*.host2.app[1].destAddresses = "host3"
*.host2.app[1].source.packetNameFormat = "%M-%m-%c"
*.host2.app[1].source.displayStringTextFormat = "sent %p pk (%l)"
*.host2.app[1].messageLength = 21B
*.host2.app[1].sendInterval = 1ms
*.host2.app[1].startTime = 69ms
*.host2.app[1].stopTime = 76ms
*.host2.app[1].display-name = "type2_1"
*.host2.app[1].destPort = 1000
*.host2.app[2].typename = "UdpBasicApp"
*.host2.app[2].destAddresses = "host3"
*.host2.app[2].source.packetNameFormat = "%M-%m-%c"
*.host2.app[2].source.displayStringTextFormat = "sent %p pk (%l)"
*.host2.app[2].messageLength = 21B
*.host2.app[2].sendInterval = 1ms
*.host2.app[2].startTime = 84ms
*.host2.app[2].stopTime = 85ms
*.host2.app[2].display-name = "type2_1"
*.host2.app[2].destPort = 1000
*.host2.app[3].typename = "UdpBasicApp"
*.host2.app[3].destAddresses = "host3"
*.host2.app[3].source.packetNameFormat = "%M-%m-%c"
*.host2.app[3].source.displayStringTextFormat = "sent %p pk (%l)"
*.host2.app[3].messageLength = 21B
*.host2.app[3].sendInterval = 1ms
*.host2.app[3].startTime = 89ms
*.host2.app[3].stopTime = 100ms
*.host2.app[3].display-name = "type2_1"
*.host2.app[3].destPort = 1000
*.host3.numApps = 1
*.host3.app[0].typename = "UdpSinkApp"
*.host3.app[0].io.localPort = 1000
*.host4.numApps = 2
*.host4.app[0].typename = "UdpSourceApp"
*.host4.app[0].io.destAddress = "host0"
*.host4.app[0].source.packetNameFormat = "%M-%m-%c"
*.host4.app[0].source.displayStringTextFormat = "sent %p pk (%l)"
*.host4.app[0].source.packetLength = 17B
*.host4.app[0].source.productionInterval = 1ms
*.host4.app[0].display-name = "type1_0"
*.host4.app[0].io.destPort = 1000
*.host4.app[1].typename = "UdpSinkApp"
*.host4.app[1].io.localPort = 1000
*.streamRedundancyConfigurator.configuration = [
	{
		name: "S1-0",
		packetFilter: "*-type1_0-*",
		source: "host4",
		destination: "host0",
		trees: [[["host4", "switch4", "switch1", "switch0", "host0"]]]
	},
	{
		name: "S2-0",
		packetFilter: "*-type2_0-*",
		source: "host1",
		destination: "host4",
		trees: [[["host1", "switch1", "switch3", "switch4", "host4"]]]
	},
	{
		name: "S2-1",
		packetFilter: "*-type2_1-*",
		source: "host2",
		destination: "host3",
		trees: [[["host2", "switch2", "switch3", "host3"]]]
	}]
	

