[General]
network = TSN_multipath
sim-time-limit = 10ms
*.macForwardingTableConfigurator.typename = ""
*.*.hasStreamRedundancy = true
*.*.bridging.streamRelay.typename = "StreamRelayLayer"
*.*.bridging.streamCoder.typename = "StreamCoderLayer"
*.streamRedundancyConfigurator.typename = "StreamRedundancyConfigurator"
*.host0.eth[0].bitrate = 1000Mbps
*.switch0.eth[0].bitrate = 1000Mbps
*.switch0.eth[1].bitrate = 1700Mbps
*.switch0.eth[2].bitrate = 1600Mbps
*.switch0.eth[3].bitrate = 1900Mbps
*.host1.eth[0].bitrate = 1000Mbps
*.switch1.eth[0].bitrate = 1000Mbps
*.switch1.eth[1].bitrate = 1700Mbps
*.switch1.eth[2].bitrate = 2200Mbps
*.switch1.eth[3].bitrate = 2200Mbps
*.switch1.eth[4].bitrate = 1700Mbps
*.host2.eth[0].bitrate = 1000Mbps
*.switch2.eth[0].bitrate = 1000Mbps
*.switch2.eth[1].bitrate = 2200Mbps
*.switch2.eth[2].bitrate = 1900Mbps
*.switch2.eth[3].bitrate = 2400Mbps
*.switch2.eth[4].bitrate = 1200Mbps
*.host3.eth[0].bitrate = 1000Mbps
*.switch3.eth[0].bitrate = 1000Mbps
*.switch3.eth[1].bitrate = 2200Mbps
*.switch3.eth[2].bitrate = 1800Mbps
*.host4.eth[0].bitrate = 1000Mbps
*.switch4.eth[0].bitrate = 1000Mbps
*.switch4.eth[1].bitrate = 1600Mbps
*.switch4.eth[2].bitrate = 2400Mbps
*.switch4.eth[3].bitrate = 1700Mbps
*.switch4.eth[4].bitrate = 1200Mbps
*.switch4.eth[5].bitrate = 1800Mbps
*.host0.numApps = 6
*.host0.app[0].typename = "UdpSinkApp"
*.host0.app[0].io.localPort = 1000
*.host0.app[1].typename = "UdpBasicApp"
*.host0.app[1].destAddresses = "host2"
*.host0.app[1].source.packetNameFormat = "%M-%m-%c"
*.host0.app[1].source.displayStringTextFormat = "sent %p pk (%l)"
*.host0.app[1].messageLength = 18B
*.host0.app[1].sendInterval = 1ms
*.host0.app[1].startTime = 1100us
*.host0.app[1].stopTime = 3600us
*.host0.app[1].display-name = "type2_0"
*.host0.app[1].destPort = 1000
*.host0.app[2].typename = "UdpBasicApp"
*.host0.app[2].destAddresses = "host2"
*.host0.app[2].source.packetNameFormat = "%M-%m-%c"
*.host0.app[2].source.displayStringTextFormat = "sent %p pk (%l)"
*.host0.app[2].messageLength = 18B
*.host0.app[2].sendInterval = 1ms
*.host0.app[2].startTime = 4100us
*.host0.app[2].stopTime = 4900us
*.host0.app[2].display-name = "type2_0"
*.host0.app[2].destPort = 1000
*.host0.app[3].typename = "UdpBasicApp"
*.host0.app[3].destAddresses = "host2"
*.host0.app[3].source.packetNameFormat = "%M-%m-%c"
*.host0.app[3].source.displayStringTextFormat = "sent %p pk (%l)"
*.host0.app[3].messageLength = 18B
*.host0.app[3].sendInterval = 1ms
*.host0.app[3].startTime = 5300us
*.host0.app[3].stopTime = 9500us
*.host0.app[3].display-name = "type2_0"
*.host0.app[3].destPort = 1000
*.host0.app[4].typename = "UdpBasicApp"
*.host0.app[4].destAddresses = "host2"
*.host0.app[4].source.packetNameFormat = "%M-%m-%c"
*.host0.app[4].source.displayStringTextFormat = "sent %p pk (%l)"
*.host0.app[4].messageLength = 18B
*.host0.app[4].sendInterval = 1ms
*.host0.app[4].startTime = 9600us
*.host0.app[4].stopTime = 10000us
*.host0.app[4].display-name = "type2_0"
*.host0.app[4].destPort = 1000
*.host0.app[5].typename = "UdpSinkApp"
*.host0.app[5].io.localPort = 1001
*.host1.numApps = 3
*.host1.app[0].typename = "UdpBasicApp"
*.host1.app[0].destAddresses = "host0"
*.host1.app[0].source.packetNameFormat = "%M-%m-%c"
*.host1.app[0].source.displayStringTextFormat = "sent %p pk (%l)"
*.host1.app[0].messageLength = 13B
*.host1.app[0].sendInterval = 1ms
*.host1.app[0].startTime = 200us
*.host1.app[0].stopTime = 1800us
*.host1.app[0].display-name = "type2_1"
*.host1.app[0].destPort = 1001
*.host1.app[1].typename = "UdpBasicApp"
*.host1.app[1].destAddresses = "host0"
*.host1.app[1].source.packetNameFormat = "%M-%m-%c"
*.host1.app[1].source.displayStringTextFormat = "sent %p pk (%l)"
*.host1.app[1].messageLength = 13B
*.host1.app[1].sendInterval = 1ms
*.host1.app[1].startTime = 2300us
*.host1.app[1].stopTime = 6500us
*.host1.app[1].display-name = "type2_1"
*.host1.app[1].destPort = 1001
*.host1.app[2].typename = "UdpBasicApp"
*.host1.app[2].destAddresses = "host0"
*.host1.app[2].source.packetNameFormat = "%M-%m-%c"
*.host1.app[2].source.displayStringTextFormat = "sent %p pk (%l)"
*.host1.app[2].messageLength = 13B
*.host1.app[2].sendInterval = 1ms
*.host1.app[2].startTime = 7300us
*.host1.app[2].stopTime = 10000us
*.host1.app[2].display-name = "type2_1"
*.host1.app[2].destPort = 1001
*.host2.numApps = 1
*.host2.app[0].typename = "UdpSinkApp"
*.host2.app[0].io.localPort = 1000
*.host3.numApps = 0
*.host4.numApps = 1
*.host4.app[0].typename = "UdpSourceApp"
*.host4.app[0].io.destAddress = "host0"
*.host4.app[0].source.packetNameFormat = "%M-%m-%c"
*.host4.app[0].source.displayStringTextFormat = "sent %p pk (%l)"
*.host4.app[0].source.packetLength = 21B
*.host4.app[0].source.productionInterval = 1ms
*.host4.app[0].display-name = "type1_0"
*.host4.app[0].io.destPort = 1000
*.streamRedundancyConfigurator.configuration = [
	{
		name: "S1-0",
		packetFilter: "*-type1_0-*",
		source: "host4",
		destination: "host0",
		trees: [[["host4", "switch4", "switch3", "switch1", "switch2", "switch0", "host0"]]]
	},
	{
		name: "S2-0",
		packetFilter: "*-type2_0-*",
		source: "host0",
		destination: "host2",
		trees: [[["host0", "switch0", "switch1", "switch2", "host2"]]]
	},
	{
		name: "S2-1",
		packetFilter: "*-type2_1-*",
		source: "host1",
		destination: "host0",
		trees: [[["host1", "switch1", "switch2", "switch0", "host0"]]]
	}]
	

