[General]
network = TSN_multipath
sim-time-limit = 100ms
*.macForwardingTableConfigurator.typename = ""
*.*.hasStreamRedundancy = true
*.*.bridging.streamRelay.typename = "StreamRelayLayer"
*.*.bridging.streamCoder.typename = "StreamCoderLayer"
*.streamRedundancyConfigurator.typename = "StreamRedundancyConfigurator"
*.host0.eth[0].bitrate = 1000Mbps
*.switch0.eth[0].bitrate = 1000Mbps
*.switch0.eth[1].bitrate = 1600Mbps
*.switch0.eth[2].bitrate = 1500Mbps
*.switch0.eth[3].bitrate = 1800Mbps
*.switch0.eth[4].bitrate = 1200Mbps
*.switch0.eth[5].bitrate = 1800Mbps
*.switch0.eth[6].bitrate = 2100Mbps
*.switch0.eth[7].bitrate = 2200Mbps
*.switch0.eth[8].bitrate = 2200Mbps
*.switch0.eth[9].bitrate = 1400Mbps
*.switch0.eth[10].bitrate = 2300Mbps
*.switch0.eth[11].bitrate = 1900Mbps
*.switch0.eth[12].bitrate = 1700Mbps
*.switch0.eth[13].bitrate = 2100Mbps
*.switch0.eth[14].bitrate = 2200Mbps
*.switch0.eth[15].bitrate = 2300Mbps
*.switch0.eth[16].bitrate = 1800Mbps
*.switch0.eth[17].bitrate = 2000Mbps
*.switch0.eth[18].bitrate = 1900Mbps
*.switch0.eth[19].bitrate = 2400Mbps
*.switch0.eth[20].bitrate = 2200Mbps
*.switch0.eth[21].bitrate = 1400Mbps
*.switch0.eth[22].bitrate = 1500Mbps
*.host1.eth[0].bitrate = 1000Mbps
*.switch1.eth[0].bitrate = 1000Mbps
*.switch1.eth[1].bitrate = 1600Mbps
*.switch1.eth[2].bitrate = 2100Mbps
*.switch1.eth[3].bitrate = 1300Mbps
*.switch1.eth[4].bitrate = 1200Mbps
*.switch1.eth[5].bitrate = 1900Mbps
*.switch1.eth[6].bitrate = 2200Mbps
*.switch1.eth[7].bitrate = 1200Mbps
*.switch1.eth[8].bitrate = 2400Mbps
*.switch1.eth[9].bitrate = 1900Mbps
*.switch1.eth[10].bitrate = 1500Mbps
*.switch1.eth[11].bitrate = 1500Mbps
*.switch1.eth[12].bitrate = 2200Mbps
*.switch1.eth[13].bitrate = 1800Mbps
*.switch1.eth[14].bitrate = 2400Mbps
*.switch1.eth[15].bitrate = 1700Mbps
*.switch1.eth[16].bitrate = 2300Mbps
*.switch1.eth[17].bitrate = 2200Mbps
*.switch1.eth[18].bitrate = 2000Mbps
*.switch1.eth[19].bitrate = 1900Mbps
*.switch1.eth[20].bitrate = 2300Mbps
*.switch1.eth[21].bitrate = 2100Mbps
*.host2.eth[0].bitrate = 1000Mbps
*.switch2.eth[0].bitrate = 1000Mbps
*.switch2.eth[1].bitrate = 1500Mbps
*.switch2.eth[2].bitrate = 1300Mbps
*.switch2.eth[3].bitrate = 2200Mbps
*.switch2.eth[4].bitrate = 1600Mbps
*.switch2.eth[5].bitrate = 2000Mbps
*.switch2.eth[6].bitrate = 1900Mbps
*.switch2.eth[7].bitrate = 2400Mbps
*.switch2.eth[8].bitrate = 1200Mbps
*.switch2.eth[9].bitrate = 2000Mbps
*.switch2.eth[10].bitrate = 1300Mbps
*.switch2.eth[11].bitrate = 1500Mbps
*.switch2.eth[12].bitrate = 1400Mbps
*.switch2.eth[13].bitrate = 2300Mbps
*.host3.eth[0].bitrate = 1000Mbps
*.switch3.eth[0].bitrate = 1000Mbps
*.switch3.eth[1].bitrate = 1800Mbps
*.switch3.eth[2].bitrate = 1200Mbps
*.switch3.eth[3].bitrate = 2300Mbps
*.switch3.eth[4].bitrate = 1400Mbps
*.switch3.eth[5].bitrate = 1400Mbps
*.switch3.eth[6].bitrate = 1300Mbps
*.switch3.eth[7].bitrate = 1200Mbps
*.switch3.eth[8].bitrate = 1900Mbps
*.switch3.eth[9].bitrate = 2300Mbps
*.switch3.eth[10].bitrate = 2400Mbps
*.host4.eth[0].bitrate = 1000Mbps
*.switch4.eth[0].bitrate = 1000Mbps
*.switch4.eth[1].bitrate = 1200Mbps
*.switch4.eth[2].bitrate = 1900Mbps
*.switch4.eth[3].bitrate = 1600Mbps
*.switch4.eth[4].bitrate = 1800Mbps
*.switch4.eth[5].bitrate = 2400Mbps
*.switch4.eth[6].bitrate = 1200Mbps
*.switch4.eth[7].bitrate = 1300Mbps
*.switch4.eth[8].bitrate = 1200Mbps
*.switch4.eth[9].bitrate = 1500Mbps
*.switch4.eth[10].bitrate = 1400Mbps
*.switch4.eth[11].bitrate = 2400Mbps
*.switch4.eth[12].bitrate = 1800Mbps
*.switch4.eth[13].bitrate = 1300Mbps
*.switch4.eth[14].bitrate = 1200Mbps
*.switch4.eth[15].bitrate = 2000Mbps
*.switch4.eth[16].bitrate = 1900Mbps
*.switch4.eth[17].bitrate = 1400Mbps
*.switch4.eth[18].bitrate = 2200Mbps
*.switch4.eth[19].bitrate = 1700Mbps
*.host5.eth[0].bitrate = 1000Mbps
*.switch5.eth[0].bitrate = 1000Mbps
*.switch5.eth[1].bitrate = 1800Mbps
*.switch5.eth[2].bitrate = 1200Mbps
*.switch5.eth[3].bitrate = 2000Mbps
*.switch5.eth[4].bitrate = 1700Mbps
*.switch5.eth[5].bitrate = 2000Mbps
*.switch5.eth[6].bitrate = 1900Mbps
*.switch5.eth[7].bitrate = 2300Mbps
*.switch5.eth[8].bitrate = 1200Mbps
*.switch5.eth[9].bitrate = 2000Mbps
*.switch5.eth[10].bitrate = 2000Mbps
*.switch5.eth[11].bitrate = 1400Mbps
*.switch5.eth[12].bitrate = 2100Mbps
*.switch5.eth[13].bitrate = 2000Mbps
*.switch5.eth[14].bitrate = 2400Mbps
*.switch5.eth[15].bitrate = 1300Mbps
*.switch5.eth[16].bitrate = 2200Mbps
*.switch5.eth[17].bitrate = 2100Mbps
*.switch5.eth[18].bitrate = 1500Mbps
*.switch5.eth[19].bitrate = 1200Mbps
*.switch5.eth[20].bitrate = 2000Mbps
*.switch5.eth[21].bitrate = 1200Mbps
*.host6.eth[0].bitrate = 1000Mbps
*.switch6.eth[0].bitrate = 1000Mbps
*.switch6.eth[1].bitrate = 2200Mbps
*.switch6.eth[2].bitrate = 1400Mbps
*.switch6.eth[3].bitrate = 1500Mbps
*.switch6.eth[4].bitrate = 2300Mbps
*.switch6.eth[5].bitrate = 1900Mbps
*.switch6.eth[6].bitrate = 2300Mbps
*.switch6.eth[7].bitrate = 1300Mbps
*.switch6.eth[8].bitrate = 1300Mbps
*.switch6.eth[9].bitrate = 2200Mbps
*.switch6.eth[10].bitrate = 1900Mbps
*.switch6.eth[11].bitrate = 2200Mbps
*.switch6.eth[12].bitrate = 1500Mbps
*.switch6.eth[13].bitrate = 1900Mbps
*.switch6.eth[14].bitrate = 1600Mbps
*.switch6.eth[15].bitrate = 1600Mbps
*.switch6.eth[16].bitrate = 2100Mbps
*.switch6.eth[17].bitrate = 2200Mbps
*.host7.eth[0].bitrate = 1000Mbps
*.switch7.eth[0].bitrate = 1000Mbps
*.switch7.eth[1].bitrate = 2100Mbps
*.switch7.eth[2].bitrate = 1200Mbps
*.switch7.eth[3].bitrate = 1400Mbps
*.switch7.eth[4].bitrate = 1200Mbps
*.switch7.eth[5].bitrate = 2200Mbps
*.switch7.eth[6].bitrate = 2400Mbps
*.switch7.eth[7].bitrate = 2200Mbps
*.switch7.eth[8].bitrate = 1500Mbps
*.switch7.eth[9].bitrate = 1400Mbps
*.switch7.eth[10].bitrate = 2200Mbps
*.switch7.eth[11].bitrate = 1400Mbps
*.switch7.eth[12].bitrate = 1200Mbps
*.switch7.eth[13].bitrate = 1700Mbps
*.switch7.eth[14].bitrate = 2400Mbps
*.switch7.eth[15].bitrate = 2100Mbps
*.switch7.eth[16].bitrate = 1200Mbps
*.switch7.eth[17].bitrate = 2100Mbps
*.switch7.eth[18].bitrate = 2300Mbps
*.switch7.eth[19].bitrate = 1300Mbps
*.switch7.eth[20].bitrate = 1500Mbps
*.host8.eth[0].bitrate = 1000Mbps
*.switch8.eth[0].bitrate = 1000Mbps
*.switch8.eth[1].bitrate = 2200Mbps
*.switch8.eth[2].bitrate = 2400Mbps
*.switch8.eth[3].bitrate = 1400Mbps
*.switch8.eth[4].bitrate = 2400Mbps
*.switch8.eth[5].bitrate = 2000Mbps
*.switch8.eth[6].bitrate = 1400Mbps
*.switch8.eth[7].bitrate = 2000Mbps
*.switch8.eth[8].bitrate = 1400Mbps
*.switch8.eth[9].bitrate = 1200Mbps
*.switch8.eth[10].bitrate = 2200Mbps
*.switch8.eth[11].bitrate = 2100Mbps
*.switch8.eth[12].bitrate = 1600Mbps
*.switch8.eth[13].bitrate = 2300Mbps
*.switch8.eth[14].bitrate = 2000Mbps
*.switch8.eth[15].bitrate = 2200Mbps
*.switch8.eth[16].bitrate = 1400Mbps
*.switch8.eth[17].bitrate = 1900Mbps
*.switch8.eth[18].bitrate = 1500Mbps
*.switch8.eth[19].bitrate = 1600Mbps
*.switch8.eth[20].bitrate = 2200Mbps
*.switch8.eth[21].bitrate = 2300Mbps
*.host9.eth[0].bitrate = 1000Mbps
*.switch9.eth[0].bitrate = 1000Mbps
*.switch9.eth[1].bitrate = 2200Mbps
*.switch9.eth[2].bitrate = 1900Mbps
*.switch9.eth[3].bitrate = 1800Mbps
*.switch9.eth[4].bitrate = 2000Mbps
*.switch9.eth[5].bitrate = 1200Mbps
*.switch9.eth[6].bitrate = 2000Mbps
*.switch9.eth[7].bitrate = 2200Mbps
*.switch9.eth[8].bitrate = 1600Mbps
*.switch9.eth[9].bitrate = 2400Mbps
*.switch9.eth[10].bitrate = 1700Mbps
*.switch9.eth[11].bitrate = 2000Mbps
*.host10.eth[0].bitrate = 1000Mbps
*.switch10.eth[0].bitrate = 1000Mbps
*.switch10.eth[1].bitrate = 1400Mbps
*.switch10.eth[2].bitrate = 1500Mbps
*.switch10.eth[3].bitrate = 1300Mbps
*.switch10.eth[4].bitrate = 1400Mbps
*.switch10.eth[5].bitrate = 1900Mbps
*.switch10.eth[6].bitrate = 1700Mbps
*.switch10.eth[7].bitrate = 2200Mbps
*.switch10.eth[8].bitrate = 1500Mbps
*.switch10.eth[9].bitrate = 2200Mbps
*.switch10.eth[10].bitrate = 2200Mbps
*.switch10.eth[11].bitrate = 1900Mbps
*.host11.eth[0].bitrate = 1000Mbps
*.switch11.eth[0].bitrate = 1000Mbps
*.switch11.eth[1].bitrate = 2300Mbps
*.switch11.eth[2].bitrate = 1500Mbps
*.switch11.eth[3].bitrate = 2100Mbps
*.switch11.eth[4].bitrate = 2200Mbps
*.switch11.eth[5].bitrate = 2400Mbps
*.switch11.eth[6].bitrate = 1400Mbps
*.switch11.eth[7].bitrate = 1400Mbps
*.switch11.eth[8].bitrate = 1900Mbps
*.switch11.eth[9].bitrate = 1900Mbps
*.switch11.eth[10].bitrate = 1200Mbps
*.switch11.eth[11].bitrate = 1300Mbps
*.switch11.eth[12].bitrate = 1900Mbps
*.switch11.eth[13].bitrate = 1400Mbps
*.switch11.eth[14].bitrate = 2200Mbps
*.switch11.eth[15].bitrate = 2400Mbps
*.switch11.eth[16].bitrate = 2300Mbps
*.switch11.eth[17].bitrate = 2100Mbps
*.host12.eth[0].bitrate = 1000Mbps
*.switch12.eth[0].bitrate = 1000Mbps
*.switch12.eth[1].bitrate = 2200Mbps
*.switch12.eth[2].bitrate = 2000Mbps
*.switch12.eth[3].bitrate = 1200Mbps
*.switch12.eth[4].bitrate = 2000Mbps
*.switch12.eth[5].bitrate = 1500Mbps
*.switch12.eth[6].bitrate = 2100Mbps
*.switch12.eth[7].bitrate = 1900Mbps
*.switch12.eth[8].bitrate = 2200Mbps
*.switch12.eth[9].bitrate = 1400Mbps
*.switch12.eth[10].bitrate = 2400Mbps
*.switch12.eth[11].bitrate = 2000Mbps
*.switch12.eth[12].bitrate = 2000Mbps
*.host13.eth[0].bitrate = 1000Mbps
*.switch13.eth[0].bitrate = 1000Mbps
*.switch13.eth[1].bitrate = 1900Mbps
*.switch13.eth[2].bitrate = 1900Mbps
*.switch13.eth[3].bitrate = 2000Mbps
*.switch13.eth[4].bitrate = 1200Mbps
*.switch13.eth[5].bitrate = 1500Mbps
*.switch13.eth[6].bitrate = 2200Mbps
*.switch13.eth[7].bitrate = 2300Mbps
*.switch13.eth[8].bitrate = 2300Mbps
*.switch13.eth[9].bitrate = 2000Mbps
*.switch13.eth[10].bitrate = 2100Mbps
*.switch13.eth[11].bitrate = 1700Mbps
*.switch13.eth[12].bitrate = 2300Mbps
*.switch13.eth[13].bitrate = 2000Mbps
*.switch13.eth[14].bitrate = 1600Mbps
*.host14.eth[0].bitrate = 1000Mbps
*.switch14.eth[0].bitrate = 1000Mbps
*.switch14.eth[1].bitrate = 1700Mbps
*.switch14.eth[2].bitrate = 1800Mbps
*.switch14.eth[3].bitrate = 2400Mbps
*.switch14.eth[4].bitrate = 2400Mbps
*.switch14.eth[5].bitrate = 1900Mbps
*.switch14.eth[6].bitrate = 2100Mbps
*.switch14.eth[7].bitrate = 1600Mbps
*.switch14.eth[8].bitrate = 2400Mbps
*.switch14.eth[9].bitrate = 1500Mbps
*.switch14.eth[10].bitrate = 2100Mbps
*.switch14.eth[11].bitrate = 2300Mbps
*.switch14.eth[12].bitrate = 2400Mbps
*.switch14.eth[13].bitrate = 1700Mbps
*.switch14.eth[14].bitrate = 1200Mbps
*.switch14.eth[15].bitrate = 2200Mbps
*.switch14.eth[16].bitrate = 1500Mbps
*.switch14.eth[17].bitrate = 2300Mbps
*.switch14.eth[18].bitrate = 2000Mbps
*.switch14.eth[19].bitrate = 2100Mbps
*.switch14.eth[20].bitrate = 2000Mbps
*.switch14.eth[21].bitrate = 1600Mbps
*.host0.numApps = 8
*.host0.app[0].typename = "UdpSinkApp"
*.host0.app[0].io.localPort = 1000
*.host0.app[1].typename = "UdpSinkApp"
*.host0.app[1].io.localPort = 1001
*.host0.app[2].typename = "UdpBasicApp"
*.host0.app[2].destAddresses = "host8"
*.host0.app[2].source.packetNameFormat = "%M-%m-%c"
*.host0.app[2].source.displayStringTextFormat = "sent %p pk (%l)"
*.host0.app[2].messageLength = 23B
*.host0.app[2].sendInterval = 1ms
*.host0.app[2].startTime = 2ms
*.host0.app[2].stopTime = 6ms
*.host0.app[2].display-name = "type2_17"
*.host0.app[2].destPort = 1001
*.host0.app[3].typename = "UdpBasicApp"
*.host0.app[3].destAddresses = "host8"
*.host0.app[3].source.packetNameFormat = "%M-%m-%c"
*.host0.app[3].source.displayStringTextFormat = "sent %p pk (%l)"
*.host0.app[3].messageLength = 23B
*.host0.app[3].sendInterval = 1ms
*.host0.app[3].startTime = 12ms
*.host0.app[3].stopTime = 34ms
*.host0.app[3].display-name = "type2_17"
*.host0.app[3].destPort = 1001
*.host0.app[4].typename = "UdpBasicApp"
*.host0.app[4].destAddresses = "host8"
*.host0.app[4].source.packetNameFormat = "%M-%m-%c"
*.host0.app[4].source.displayStringTextFormat = "sent %p pk (%l)"
*.host0.app[4].messageLength = 23B
*.host0.app[4].sendInterval = 1ms
*.host0.app[4].startTime = 38ms
*.host0.app[4].stopTime = 49ms
*.host0.app[4].display-name = "type2_17"
*.host0.app[4].destPort = 1001
*.host0.app[5].typename = "UdpBasicApp"
*.host0.app[5].destAddresses = "host8"
*.host0.app[5].source.packetNameFormat = "%M-%m-%c"
*.host0.app[5].source.displayStringTextFormat = "sent %p pk (%l)"
*.host0.app[5].messageLength = 23B
*.host0.app[5].sendInterval = 1ms
*.host0.app[5].startTime = 57ms
*.host0.app[5].stopTime = 72ms
*.host0.app[5].display-name = "type2_17"
*.host0.app[5].destPort = 1001
*.host0.app[6].typename = "UdpBasicApp"
*.host0.app[6].destAddresses = "host8"
*.host0.app[6].source.packetNameFormat = "%M-%m-%c"
*.host0.app[6].source.displayStringTextFormat = "sent %p pk (%l)"
*.host0.app[6].messageLength = 23B
*.host0.app[6].sendInterval = 1ms
*.host0.app[6].startTime = 73ms
*.host0.app[6].stopTime = 74ms
*.host0.app[6].display-name = "type2_17"
*.host0.app[6].destPort = 1001
*.host0.app[7].typename = "UdpBasicApp"
*.host0.app[7].destAddresses = "host8"
*.host0.app[7].source.packetNameFormat = "%M-%m-%c"
*.host0.app[7].source.displayStringTextFormat = "sent %p pk (%l)"
*.host0.app[7].messageLength = 23B
*.host0.app[7].sendInterval = 1ms
*.host0.app[7].startTime = 75ms
*.host0.app[7].stopTime = 76ms
*.host0.app[7].display-name = "type2_17"
*.host0.app[7].destPort = 1001
*.host1.numApps = 18
*.host1.app[0].typename = "UdpSinkApp"
*.host1.app[0].io.localPort = 1000
*.host1.app[1].typename = "UdpBasicApp"
*.host1.app[1].destAddresses = "host5"
*.host1.app[1].source.packetNameFormat = "%M-%m-%c"
*.host1.app[1].source.displayStringTextFormat = "sent %p pk (%l)"
*.host1.app[1].messageLength = 20B
*.host1.app[1].sendInterval = 1ms
*.host1.app[1].startTime = 8ms
*.host1.app[1].stopTime = 15ms
*.host1.app[1].display-name = "type2_1"
*.host1.app[1].destPort = 1000
*.host1.app[2].typename = "UdpBasicApp"
*.host1.app[2].destAddresses = "host5"
*.host1.app[2].source.packetNameFormat = "%M-%m-%c"
*.host1.app[2].source.displayStringTextFormat = "sent %p pk (%l)"
*.host1.app[2].messageLength = 20B
*.host1.app[2].sendInterval = 1ms
*.host1.app[2].startTime = 21ms
*.host1.app[2].stopTime = 23ms
*.host1.app[2].display-name = "type2_1"
*.host1.app[2].destPort = 1000
*.host1.app[3].typename = "UdpBasicApp"
*.host1.app[3].destAddresses = "host5"
*.host1.app[3].source.packetNameFormat = "%M-%m-%c"
*.host1.app[3].source.displayStringTextFormat = "sent %p pk (%l)"
*.host1.app[3].messageLength = 20B
*.host1.app[3].sendInterval = 1ms
*.host1.app[3].startTime = 41ms
*.host1.app[3].stopTime = 43ms
*.host1.app[3].display-name = "type2_1"
*.host1.app[3].destPort = 1000
*.host1.app[4].typename = "UdpBasicApp"
*.host1.app[4].destAddresses = "host5"
*.host1.app[4].source.packetNameFormat = "%M-%m-%c"
*.host1.app[4].source.displayStringTextFormat = "sent %p pk (%l)"
*.host1.app[4].messageLength = 20B
*.host1.app[4].sendInterval = 1ms
*.host1.app[4].startTime = 44ms
*.host1.app[4].stopTime = 47ms
*.host1.app[4].display-name = "type2_1"
*.host1.app[4].destPort = 1000
*.host1.app[5].typename = "UdpBasicApp"
*.host1.app[5].destAddresses = "host5"
*.host1.app[5].source.packetNameFormat = "%M-%m-%c"
*.host1.app[5].source.displayStringTextFormat = "sent %p pk (%l)"
*.host1.app[5].messageLength = 20B
*.host1.app[5].sendInterval = 1ms
*.host1.app[5].startTime = 52ms
*.host1.app[5].stopTime = 71ms
*.host1.app[5].display-name = "type2_1"
*.host1.app[5].destPort = 1000
*.host1.app[6].typename = "UdpBasicApp"
*.host1.app[6].destAddresses = "host5"
*.host1.app[6].source.packetNameFormat = "%M-%m-%c"
*.host1.app[6].source.displayStringTextFormat = "sent %p pk (%l)"
*.host1.app[6].messageLength = 20B
*.host1.app[6].sendInterval = 1ms
*.host1.app[6].startTime = 72ms
*.host1.app[6].stopTime = 78ms
*.host1.app[6].display-name = "type2_1"
*.host1.app[6].destPort = 1000
*.host1.app[7].typename = "UdpBasicApp"
*.host1.app[7].destAddresses = "host5"
*.host1.app[7].source.packetNameFormat = "%M-%m-%c"
*.host1.app[7].source.displayStringTextFormat = "sent %p pk (%l)"
*.host1.app[7].messageLength = 20B
*.host1.app[7].sendInterval = 1ms
*.host1.app[7].startTime = 80ms
*.host1.app[7].stopTime = 96ms
*.host1.app[7].display-name = "type2_1"
*.host1.app[7].destPort = 1000
*.host1.app[8].typename = "UdpSinkApp"
*.host1.app[8].io.localPort = 1001
*.host1.app[9].typename = "UdpBasicApp"
*.host1.app[9].destAddresses = "host7"
*.host1.app[9].source.packetNameFormat = "%M-%m-%c"
*.host1.app[9].source.displayStringTextFormat = "sent %p pk (%l)"
*.host1.app[9].messageLength = 20B
*.host1.app[9].sendInterval = 1ms
*.host1.app[9].startTime = 0ms
*.host1.app[9].stopTime = 1ms
*.host1.app[9].display-name = "type2_11"
*.host1.app[9].destPort = 1001
*.host1.app[10].typename = "UdpBasicApp"
*.host1.app[10].destAddresses = "host7"
*.host1.app[10].source.packetNameFormat = "%M-%m-%c"
*.host1.app[10].source.displayStringTextFormat = "sent %p pk (%l)"
*.host1.app[10].messageLength = 20B
*.host1.app[10].sendInterval = 1ms
*.host1.app[10].startTime = 17ms
*.host1.app[10].stopTime = 19ms
*.host1.app[10].display-name = "type2_11"
*.host1.app[10].destPort = 1001
*.host1.app[11].typename = "UdpBasicApp"
*.host1.app[11].destAddresses = "host7"
*.host1.app[11].source.packetNameFormat = "%M-%m-%c"
*.host1.app[11].source.displayStringTextFormat = "sent %p pk (%l)"
*.host1.app[11].messageLength = 20B
*.host1.app[11].sendInterval = 1ms
*.host1.app[11].startTime = 25ms
*.host1.app[11].stopTime = 29ms
*.host1.app[11].display-name = "type2_11"
*.host1.app[11].destPort = 1001
*.host1.app[12].typename = "UdpBasicApp"
*.host1.app[12].destAddresses = "host7"
*.host1.app[12].source.packetNameFormat = "%M-%m-%c"
*.host1.app[12].source.displayStringTextFormat = "sent %p pk (%l)"
*.host1.app[12].messageLength = 20B
*.host1.app[12].sendInterval = 1ms
*.host1.app[12].startTime = 30ms
*.host1.app[12].stopTime = 33ms
*.host1.app[12].display-name = "type2_11"
*.host1.app[12].destPort = 1001
*.host1.app[13].typename = "UdpBasicApp"
*.host1.app[13].destAddresses = "host7"
*.host1.app[13].source.packetNameFormat = "%M-%m-%c"
*.host1.app[13].source.displayStringTextFormat = "sent %p pk (%l)"
*.host1.app[13].messageLength = 20B
*.host1.app[13].sendInterval = 1ms
*.host1.app[13].startTime = 50ms
*.host1.app[13].stopTime = 52ms
*.host1.app[13].display-name = "type2_11"
*.host1.app[13].destPort = 1001
*.host1.app[14].typename = "UdpBasicApp"
*.host1.app[14].destAddresses = "host7"
*.host1.app[14].source.packetNameFormat = "%M-%m-%c"
*.host1.app[14].source.displayStringTextFormat = "sent %p pk (%l)"
*.host1.app[14].messageLength = 20B
*.host1.app[14].sendInterval = 1ms
*.host1.app[14].startTime = 65ms
*.host1.app[14].stopTime = 71ms
*.host1.app[14].display-name = "type2_11"
*.host1.app[14].destPort = 1001
*.host1.app[15].typename = "UdpBasicApp"
*.host1.app[15].destAddresses = "host7"
*.host1.app[15].source.packetNameFormat = "%M-%m-%c"
*.host1.app[15].source.displayStringTextFormat = "sent %p pk (%l)"
*.host1.app[15].messageLength = 20B
*.host1.app[15].sendInterval = 1ms
*.host1.app[15].startTime = 76ms
*.host1.app[15].stopTime = 82ms
*.host1.app[15].display-name = "type2_11"
*.host1.app[15].destPort = 1001
*.host1.app[16].typename = "UdpBasicApp"
*.host1.app[16].destAddresses = "host7"
*.host1.app[16].source.packetNameFormat = "%M-%m-%c"
*.host1.app[16].source.displayStringTextFormat = "sent %p pk (%l)"
*.host1.app[16].messageLength = 20B
*.host1.app[16].sendInterval = 1ms
*.host1.app[16].startTime = 86ms
*.host1.app[16].stopTime = 88ms
*.host1.app[16].display-name = "type2_11"
*.host1.app[16].destPort = 1001
*.host1.app[17].typename = "UdpSinkApp"
*.host1.app[17].io.localPort = 1002
*.host2.numApps = 3
*.host2.app[0].typename = "UdpSinkApp"
*.host2.app[0].io.localPort = 1000
*.host2.app[1].typename = "UdpSinkApp"
*.host2.app[1].io.localPort = 1001
*.host2.app[2].typename = "UdpSinkApp"
*.host2.app[2].io.localPort = 1002
*.host3.numApps = 14
*.host3.app[0].typename = "UdpSourceApp"
*.host3.app[0].io.destAddress = "host4"
*.host3.app[0].source.packetNameFormat = "%M-%m-%c"
*.host3.app[0].source.displayStringTextFormat = "sent %p pk (%l)"
*.host3.app[0].source.packetLength = 21B
*.host3.app[0].source.productionInterval = 1ms
*.host3.app[0].display-name = "type1_1"
*.host3.app[0].io.destPort = 1000
*.host3.app[1].typename = "UdpSinkApp"
*.host3.app[1].io.localPort = 1000
*.host3.app[2].typename = "UdpSinkApp"
*.host3.app[2].io.localPort = 1001
*.host3.app[3].typename = "UdpBasicApp"
*.host3.app[3].destAddresses = "host1"
*.host3.app[3].source.packetNameFormat = "%M-%m-%c"
*.host3.app[3].source.displayStringTextFormat = "sent %p pk (%l)"
*.host3.app[3].messageLength = 23B
*.host3.app[3].sendInterval = 1ms
*.host3.app[3].startTime = 6ms
*.host3.app[3].stopTime = 20ms
*.host3.app[3].display-name = "type2_9"
*.host3.app[3].destPort = 1001
*.host3.app[4].typename = "UdpBasicApp"
*.host3.app[4].destAddresses = "host1"
*.host3.app[4].source.packetNameFormat = "%M-%m-%c"
*.host3.app[4].source.displayStringTextFormat = "sent %p pk (%l)"
*.host3.app[4].messageLength = 23B
*.host3.app[4].sendInterval = 1ms
*.host3.app[4].startTime = 77ms
*.host3.app[4].stopTime = 82ms
*.host3.app[4].display-name = "type2_9"
*.host3.app[4].destPort = 1001
*.host3.app[5].typename = "UdpBasicApp"
*.host3.app[5].destAddresses = "host1"
*.host3.app[5].source.packetNameFormat = "%M-%m-%c"
*.host3.app[5].source.displayStringTextFormat = "sent %p pk (%l)"
*.host3.app[5].messageLength = 23B
*.host3.app[5].sendInterval = 1ms
*.host3.app[5].startTime = 84ms
*.host3.app[5].stopTime = 87ms
*.host3.app[5].display-name = "type2_9"
*.host3.app[5].destPort = 1001
*.host3.app[6].typename = "UdpBasicApp"
*.host3.app[6].destAddresses = "host1"
*.host3.app[6].source.packetNameFormat = "%M-%m-%c"
*.host3.app[6].source.displayStringTextFormat = "sent %p pk (%l)"
*.host3.app[6].messageLength = 23B
*.host3.app[6].sendInterval = 1ms
*.host3.app[6].startTime = 96ms
*.host3.app[6].stopTime = 98ms
*.host3.app[6].display-name = "type2_9"
*.host3.app[6].destPort = 1001
*.host3.app[7].typename = "UdpBasicApp"
*.host3.app[7].destAddresses = "host1"
*.host3.app[7].source.packetNameFormat = "%M-%m-%c"
*.host3.app[7].source.displayStringTextFormat = "sent %p pk (%l)"
*.host3.app[7].messageLength = 23B
*.host3.app[7].sendInterval = 1ms
*.host3.app[7].startTime = 99ms
*.host3.app[7].stopTime = 100ms
*.host3.app[7].display-name = "type2_9"
*.host3.app[7].destPort = 1001
*.host3.app[8].typename = "UdpSinkApp"
*.host3.app[8].io.localPort = 1002
*.host3.app[9].typename = "UdpBasicApp"
*.host3.app[9].destAddresses = "host10"
*.host3.app[9].source.packetNameFormat = "%M-%m-%c"
*.host3.app[9].source.displayStringTextFormat = "sent %p pk (%l)"
*.host3.app[9].messageLength = 24B
*.host3.app[9].sendInterval = 1ms
*.host3.app[9].startTime = 3ms
*.host3.app[9].stopTime = 8ms
*.host3.app[9].display-name = "type2_20"
*.host3.app[9].destPort = 1001
*.host3.app[10].typename = "UdpBasicApp"
*.host3.app[10].destAddresses = "host10"
*.host3.app[10].source.packetNameFormat = "%M-%m-%c"
*.host3.app[10].source.displayStringTextFormat = "sent %p pk (%l)"
*.host3.app[10].messageLength = 24B
*.host3.app[10].sendInterval = 1ms
*.host3.app[10].startTime = 16ms
*.host3.app[10].stopTime = 31ms
*.host3.app[10].display-name = "type2_20"
*.host3.app[10].destPort = 1001
*.host3.app[11].typename = "UdpBasicApp"
*.host3.app[11].destAddresses = "host10"
*.host3.app[11].source.packetNameFormat = "%M-%m-%c"
*.host3.app[11].source.displayStringTextFormat = "sent %p pk (%l)"
*.host3.app[11].messageLength = 24B
*.host3.app[11].sendInterval = 1ms
*.host3.app[11].startTime = 33ms
*.host3.app[11].stopTime = 50ms
*.host3.app[11].display-name = "type2_20"
*.host3.app[11].destPort = 1001
*.host3.app[12].typename = "UdpBasicApp"
*.host3.app[12].destAddresses = "host10"
*.host3.app[12].source.packetNameFormat = "%M-%m-%c"
*.host3.app[12].source.displayStringTextFormat = "sent %p pk (%l)"
*.host3.app[12].messageLength = 24B
*.host3.app[12].sendInterval = 1ms
*.host3.app[12].startTime = 56ms
*.host3.app[12].stopTime = 61ms
*.host3.app[12].display-name = "type2_20"
*.host3.app[12].destPort = 1001
*.host3.app[13].typename = "UdpBasicApp"
*.host3.app[13].destAddresses = "host10"
*.host3.app[13].source.packetNameFormat = "%M-%m-%c"
*.host3.app[13].source.displayStringTextFormat = "sent %p pk (%l)"
*.host3.app[13].messageLength = 24B
*.host3.app[13].sendInterval = 1ms
*.host3.app[13].startTime = 64ms
*.host3.app[13].stopTime = 80ms
*.host3.app[13].display-name = "type2_20"
*.host3.app[13].destPort = 1001
*.host4.numApps = 29
*.host4.app[0].typename = "UdpSinkApp"
*.host4.app[0].io.localPort = 1000
*.host4.app[1].typename = "UdpSourceApp"
*.host4.app[1].io.destAddress = "host2"
*.host4.app[1].source.packetNameFormat = "%M-%m-%c"
*.host4.app[1].source.displayStringTextFormat = "sent %p pk (%l)"
*.host4.app[1].source.packetLength = 22B
*.host4.app[1].source.productionInterval = 1ms
*.host4.app[1].display-name = "type1_3"
*.host4.app[1].io.destPort = 1000
*.host4.app[2].typename = "UdpBasicApp"
*.host4.app[2].destAddresses = "host8"
*.host4.app[2].source.packetNameFormat = "%M-%m-%c"
*.host4.app[2].source.displayStringTextFormat = "sent %p pk (%l)"
*.host4.app[2].messageLength = 14B
*.host4.app[2].sendInterval = 1ms
*.host4.app[2].startTime = 3ms
*.host4.app[2].stopTime = 8ms
*.host4.app[2].display-name = "type2_4"
*.host4.app[2].destPort = 1000
*.host4.app[3].typename = "UdpBasicApp"
*.host4.app[3].destAddresses = "host8"
*.host4.app[3].source.packetNameFormat = "%M-%m-%c"
*.host4.app[3].source.displayStringTextFormat = "sent %p pk (%l)"
*.host4.app[3].messageLength = 14B
*.host4.app[3].sendInterval = 1ms
*.host4.app[3].startTime = 12ms
*.host4.app[3].stopTime = 21ms
*.host4.app[3].display-name = "type2_4"
*.host4.app[3].destPort = 1000
*.host4.app[4].typename = "UdpBasicApp"
*.host4.app[4].destAddresses = "host8"
*.host4.app[4].source.packetNameFormat = "%M-%m-%c"
*.host4.app[4].source.displayStringTextFormat = "sent %p pk (%l)"
*.host4.app[4].messageLength = 14B
*.host4.app[4].sendInterval = 1ms
*.host4.app[4].startTime = 23ms
*.host4.app[4].stopTime = 29ms
*.host4.app[4].display-name = "type2_4"
*.host4.app[4].destPort = 1000
*.host4.app[5].typename = "UdpBasicApp"
*.host4.app[5].destAddresses = "host8"
*.host4.app[5].source.packetNameFormat = "%M-%m-%c"
*.host4.app[5].source.displayStringTextFormat = "sent %p pk (%l)"
*.host4.app[5].messageLength = 14B
*.host4.app[5].sendInterval = 1ms
*.host4.app[5].startTime = 35ms
*.host4.app[5].stopTime = 36ms
*.host4.app[5].display-name = "type2_4"
*.host4.app[5].destPort = 1000
*.host4.app[6].typename = "UdpBasicApp"
*.host4.app[6].destAddresses = "host8"
*.host4.app[6].source.packetNameFormat = "%M-%m-%c"
*.host4.app[6].source.displayStringTextFormat = "sent %p pk (%l)"
*.host4.app[6].messageLength = 14B
*.host4.app[6].sendInterval = 1ms
*.host4.app[6].startTime = 40ms
*.host4.app[6].stopTime = 43ms
*.host4.app[6].display-name = "type2_4"
*.host4.app[6].destPort = 1000
*.host4.app[7].typename = "UdpBasicApp"
*.host4.app[7].destAddresses = "host8"
*.host4.app[7].source.packetNameFormat = "%M-%m-%c"
*.host4.app[7].source.displayStringTextFormat = "sent %p pk (%l)"
*.host4.app[7].messageLength = 14B
*.host4.app[7].sendInterval = 1ms
*.host4.app[7].startTime = 55ms
*.host4.app[7].stopTime = 63ms
*.host4.app[7].display-name = "type2_4"
*.host4.app[7].destPort = 1000
*.host4.app[8].typename = "UdpBasicApp"
*.host4.app[8].destAddresses = "host8"
*.host4.app[8].source.packetNameFormat = "%M-%m-%c"
*.host4.app[8].source.displayStringTextFormat = "sent %p pk (%l)"
*.host4.app[8].messageLength = 14B
*.host4.app[8].sendInterval = 1ms
*.host4.app[8].startTime = 73ms
*.host4.app[8].stopTime = 82ms
*.host4.app[8].display-name = "type2_4"
*.host4.app[8].destPort = 1000
*.host4.app[9].typename = "UdpBasicApp"
*.host4.app[9].destAddresses = "host8"
*.host4.app[9].source.packetNameFormat = "%M-%m-%c"
*.host4.app[9].source.displayStringTextFormat = "sent %p pk (%l)"
*.host4.app[9].messageLength = 14B
*.host4.app[9].sendInterval = 1ms
*.host4.app[9].startTime = 99ms
*.host4.app[9].stopTime = 100ms
*.host4.app[9].display-name = "type2_4"
*.host4.app[9].destPort = 1000
*.host4.app[10].typename = "UdpBasicApp"
*.host4.app[10].destAddresses = "host3"
*.host4.app[10].source.packetNameFormat = "%M-%m-%c"
*.host4.app[10].source.displayStringTextFormat = "sent %p pk (%l)"
*.host4.app[10].messageLength = 12B
*.host4.app[10].sendInterval = 1ms
*.host4.app[10].startTime = 3ms
*.host4.app[10].stopTime = 11ms
*.host4.app[10].display-name = "type2_5"
*.host4.app[10].destPort = 1000
*.host4.app[11].typename = "UdpBasicApp"
*.host4.app[11].destAddresses = "host3"
*.host4.app[11].source.packetNameFormat = "%M-%m-%c"
*.host4.app[11].source.displayStringTextFormat = "sent %p pk (%l)"
*.host4.app[11].messageLength = 12B
*.host4.app[11].sendInterval = 1ms
*.host4.app[11].startTime = 28ms
*.host4.app[11].stopTime = 29ms
*.host4.app[11].display-name = "type2_5"
*.host4.app[11].destPort = 1000
*.host4.app[12].typename = "UdpBasicApp"
*.host4.app[12].destAddresses = "host3"
*.host4.app[12].source.packetNameFormat = "%M-%m-%c"
*.host4.app[12].source.displayStringTextFormat = "sent %p pk (%l)"
*.host4.app[12].messageLength = 12B
*.host4.app[12].sendInterval = 1ms
*.host4.app[12].startTime = 32ms
*.host4.app[12].stopTime = 35ms
*.host4.app[12].display-name = "type2_5"
*.host4.app[12].destPort = 1000
*.host4.app[13].typename = "UdpBasicApp"
*.host4.app[13].destAddresses = "host3"
*.host4.app[13].source.packetNameFormat = "%M-%m-%c"
*.host4.app[13].source.displayStringTextFormat = "sent %p pk (%l)"
*.host4.app[13].messageLength = 12B
*.host4.app[13].sendInterval = 1ms
*.host4.app[13].startTime = 37ms
*.host4.app[13].stopTime = 41ms
*.host4.app[13].display-name = "type2_5"
*.host4.app[13].destPort = 1000
*.host4.app[14].typename = "UdpBasicApp"
*.host4.app[14].destAddresses = "host3"
*.host4.app[14].source.packetNameFormat = "%M-%m-%c"
*.host4.app[14].source.displayStringTextFormat = "sent %p pk (%l)"
*.host4.app[14].messageLength = 12B
*.host4.app[14].sendInterval = 1ms
*.host4.app[14].startTime = 45ms
*.host4.app[14].stopTime = 58ms