[General]
network = TSN_multipath
sim-time-limit = 100ms
*.macForwardingTableConfigurator.typename = ""
*.*.hasStreamRedundancy = true
*.*.bridging.streamRelay.typename = "StreamRelayLayer"
*.*.bridging.streamCoder.typename = "StreamCoderLayer"
*.streamRedundancyConfigurator.typename = "StreamRedundancyConfigurator"
*.host0.eth[0].bitrate = 1000Mbps
*.switch0.eth[0].bitrate = 1000Mbps
*.switch0.eth[1].bitrate = 1500Mbps
*.switch0.eth[2].bitrate = 1300Mbps
*.switch0.eth[3].bitrate = 1700Mbps
*.switch0.eth[4].bitrate = 1200Mbps
*.switch0.eth[5].bitrate = 1700Mbps
*.switch0.eth[6].bitrate = 2300Mbps
*.switch0.eth[7].bitrate = 1800Mbps
*.switch0.eth[8].bitrate = 2200Mbps
*.switch0.eth[9].bitrate = 2100Mbps
*.switch0.eth[10].bitrate = 1800Mbps
*.switch0.eth[11].bitrate = 1600Mbps
*.switch0.eth[12].bitrate = 2200Mbps
*.switch0.eth[13].bitrate = 1200Mbps
*.switch0.eth[14].bitrate = 2100Mbps
*.switch0.eth[15].bitrate = 1900Mbps
*.switch0.eth[16].bitrate = 1400Mbps
*.switch0.eth[17].bitrate = 1900Mbps
*.switch0.eth[18].bitrate = 2300Mbps
*.host1.eth[0].bitrate = 1000Mbps
*.switch1.eth[0].bitrate = 1000Mbps
*.switch1.eth[1].bitrate = 1500Mbps
*.switch1.eth[2].bitrate = 2100Mbps
*.switch1.eth[3].bitrate = 1500Mbps
*.switch1.eth[4].bitrate = 1600Mbps
*.switch1.eth[5].bitrate = 1400Mbps
*.switch1.eth[6].bitrate = 2400Mbps
*.switch1.eth[7].bitrate = 2300Mbps
*.switch1.eth[8].bitrate = 1600Mbps
*.switch1.eth[9].bitrate = 1900Mbps
*.switch1.eth[10].bitrate = 2200Mbps
*.host2.eth[0].bitrate = 1000Mbps
*.switch2.eth[0].bitrate = 1000Mbps
*.switch2.eth[1].bitrate = 1300Mbps
*.switch2.eth[2].bitrate = 2400Mbps
*.switch2.eth[3].bitrate = 2000Mbps
*.switch2.eth[4].bitrate = 2200Mbps
*.switch2.eth[5].bitrate = 2400Mbps
*.switch2.eth[6].bitrate = 2300Mbps
*.switch2.eth[7].bitrate = 1200Mbps
*.switch2.eth[8].bitrate = 2400Mbps
*.switch2.eth[9].bitrate = 1800Mbps
*.switch2.eth[10].bitrate = 2100Mbps
*.switch2.eth[11].bitrate = 1400Mbps
*.switch2.eth[12].bitrate = 1200Mbps
*.switch2.eth[13].bitrate = 1900Mbps
*.host3.eth[0].bitrate = 1000Mbps
*.switch3.eth[0].bitrate = 1000Mbps
*.switch3.eth[1].bitrate = 1400Mbps
*.switch3.eth[2].bitrate = 2200Mbps
*.switch3.eth[3].bitrate = 1500Mbps
*.switch3.eth[4].bitrate = 1500Mbps
*.switch3.eth[5].bitrate = 1400Mbps
*.switch3.eth[6].bitrate = 1200Mbps
*.switch3.eth[7].bitrate = 1300Mbps
*.switch3.eth[8].bitrate = 1500Mbps
*.host4.eth[0].bitrate = 1000Mbps
*.switch4.eth[0].bitrate = 1000Mbps
*.switch4.eth[1].bitrate = 1700Mbps
*.switch4.eth[2].bitrate = 1500Mbps
*.switch4.eth[3].bitrate = 2300Mbps
*.switch4.eth[4].bitrate = 1900Mbps
*.switch4.eth[5].bitrate = 1400Mbps
*.host5.eth[0].bitrate = 1000Mbps
*.switch5.eth[0].bitrate = 1000Mbps
*.switch5.eth[1].bitrate = 1200Mbps
*.switch5.eth[2].bitrate = 2400Mbps
*.switch5.eth[3].bitrate = 1200Mbps
*.switch5.eth[4].bitrate = 1300Mbps
*.switch5.eth[5].bitrate = 1300Mbps
*.switch5.eth[6].bitrate = 1200Mbps
*.switch5.eth[7].bitrate = 1800Mbps
*.switch5.eth[8].bitrate = 2200Mbps
*.switch5.eth[9].bitrate = 1900Mbps
*.switch5.eth[10].bitrate = 1300Mbps
*.switch5.eth[11].bitrate = 1200Mbps
*.host6.eth[0].bitrate = 1000Mbps
*.switch6.eth[0].bitrate = 1000Mbps
*.switch6.eth[1].bitrate = 1700Mbps
*.switch6.eth[2].bitrate = 2000Mbps
*.switch6.eth[3].bitrate = 1300Mbps
*.switch6.eth[4].bitrate = 1600Mbps
*.switch6.eth[5].bitrate = 1900Mbps
*.switch6.eth[6].bitrate = 2200Mbps
*.switch6.eth[7].bitrate = 1900Mbps
*.switch6.eth[8].bitrate = 2100Mbps
*.switch6.eth[9].bitrate = 1800Mbps
*.switch6.eth[10].bitrate = 1200Mbps
*.switch6.eth[11].bitrate = 1500Mbps
*.switch6.eth[12].bitrate = 1400Mbps
*.host7.eth[0].bitrate = 1000Mbps
*.switch7.eth[0].bitrate = 1000Mbps
*.switch7.eth[1].bitrate = 2300Mbps
*.switch7.eth[2].bitrate = 2200Mbps
*.switch7.eth[3].bitrate = 1400Mbps
*.switch7.eth[4].bitrate = 2300Mbps
*.switch7.eth[5].bitrate = 1900Mbps
*.switch7.eth[6].bitrate = 1900Mbps
*.switch7.eth[7].bitrate = 1400Mbps
*.switch7.eth[8].bitrate = 2400Mbps
*.switch7.eth[9].bitrate = 2200Mbps
*.switch7.eth[10].bitrate = 1900Mbps
*.switch7.eth[11].bitrate = 1800Mbps
*.switch7.eth[12].bitrate = 1200Mbps
*.switch7.eth[13].bitrate = 1400Mbps
*.switch7.eth[14].bitrate = 1200Mbps
*.switch7.eth[15].bitrate = 1600Mbps
*.switch7.eth[16].bitrate = 2000Mbps
*.switch7.eth[17].bitrate = 2300Mbps
*.switch7.eth[18].bitrate = 1900Mbps
*.switch7.eth[19].bitrate = 1900Mbps
*.host8.eth[0].bitrate = 1000Mbps
*.switch8.eth[0].bitrate = 1000Mbps
*.switch8.eth[1].bitrate = 1800Mbps
*.switch8.eth[2].bitrate = 2400Mbps
*.switch8.eth[3].bitrate = 1800Mbps
*.switch8.eth[4].bitrate = 1500Mbps
*.switch8.eth[5].bitrate = 1300Mbps
*.switch8.eth[6].bitrate = 1200Mbps
*.switch8.eth[7].bitrate = 1600Mbps
*.switch8.eth[8].bitrate = 1700Mbps
*.switch8.eth[9].bitrate = 2200Mbps
*.switch8.eth[10].bitrate = 1400Mbps
*.switch8.eth[11].bitrate = 2000Mbps
*.switch8.eth[12].bitrate = 1400Mbps
*.switch8.eth[13].bitrate = 2100Mbps
*.switch8.eth[14].bitrate = 2000Mbps
*.host9.eth[0].bitrate = 1000Mbps
*.switch9.eth[0].bitrate = 1000Mbps
*.switch9.eth[1].bitrate = 2200Mbps
*.switch9.eth[2].bitrate = 2400Mbps
*.switch9.eth[3].bitrate = 1300Mbps
*.switch9.eth[4].bitrate = 1400Mbps
*.switch9.eth[5].bitrate = 2300Mbps
*.switch9.eth[6].bitrate = 2100Mbps
*.switch9.eth[7].bitrate = 1500Mbps
*.switch9.eth[8].bitrate = 1500Mbps
*.switch9.eth[9].bitrate = 2000Mbps
*.switch9.eth[10].bitrate = 1400Mbps
*.switch9.eth[11].bitrate = 1400Mbps
*.switch9.eth[12].bitrate = 1300Mbps
*.switch9.eth[13].bitrate = 1400Mbps
*.switch9.eth[14].bitrate = 1400Mbps
*.switch9.eth[15].bitrate = 1200Mbps
*.switch9.eth[16].bitrate = 1900Mbps
*.switch9.eth[17].bitrate = 1200Mbps
*.host10.eth[0].bitrate = 1000Mbps
*.switch10.eth[0].bitrate = 1000Mbps
*.switch10.eth[1].bitrate = 2100Mbps
*.switch10.eth[2].bitrate = 2300Mbps
*.switch10.eth[3].bitrate = 1200Mbps
*.switch10.eth[4].bitrate = 1700Mbps
*.switch10.eth[5].bitrate = 1400Mbps
*.switch10.eth[6].bitrate = 1400Mbps
*.switch10.eth[7].bitrate = 1400Mbps
*.switch10.eth[8].bitrate = 2200Mbps
*.host11.eth[0].bitrate = 1000Mbps
*.switch11.eth[0].bitrate = 1000Mbps
*.switch11.eth[1].bitrate = 1800Mbps
*.switch11.eth[2].bitrate = 1800Mbps
*.switch11.eth[3].bitrate = 2100Mbps
*.switch11.eth[4].bitrate = 2200Mbps
*.switch11.eth[5].bitrate = 1300Mbps
*.switch11.eth[6].bitrate = 1600Mbps
*.switch11.eth[7].bitrate = 1400Mbps
*.switch11.eth[8].bitrate = 1200Mbps
*.switch11.eth[9].bitrate = 2300Mbps
*.switch11.eth[10].bitrate = 2100Mbps
*.switch11.eth[11].bitrate = 1200Mbps
*.switch11.eth[12].bitrate = 1800Mbps
*.switch11.eth[13].bitrate = 2300Mbps
*.host12.eth[0].bitrate = 1000Mbps
*.switch12.eth[0].bitrate = 1000Mbps
*.switch12.eth[1].bitrate = 1600Mbps
*.switch12.eth[2].bitrate = 1200Mbps
*.switch12.eth[3].bitrate = 1900Mbps
*.switch12.eth[4].bitrate = 1400Mbps
*.switch12.eth[5].bitrate = 1200Mbps
*.switch12.eth[6].bitrate = 1400Mbps
*.switch12.eth[7].bitrate = 1900Mbps
*.host13.eth[0].bitrate = 1000Mbps
*.switch13.eth[0].bitrate = 1000Mbps
*.switch13.eth[1].bitrate = 2200Mbps
*.switch13.eth[2].bitrate = 1400Mbps
*.switch13.eth[3].bitrate = 1400Mbps
*.switch13.eth[4].bitrate = 1900Mbps
*.switch13.eth[5].bitrate = 1200Mbps
*.switch13.eth[6].bitrate = 1300Mbps
*.switch13.eth[7].bitrate = 2000Mbps
*.switch13.eth[8].bitrate = 1900Mbps
*.switch13.eth[9].bitrate = 2200Mbps
*.host14.eth[0].bitrate = 1000Mbps
*.switch14.eth[0].bitrate = 1000Mbps
*.switch14.eth[1].bitrate = 1200Mbps
*.switch14.eth[2].bitrate = 1200Mbps
*.switch14.eth[3].bitrate = 2000Mbps
*.switch14.eth[4].bitrate = 1400Mbps
*.switch14.eth[5].bitrate = 1800Mbps
*.switch14.eth[6].bitrate = 2200Mbps
*.switch14.eth[7].bitrate = 2300Mbps
*.switch14.eth[8].bitrate = 2200Mbps
*.switch14.eth[9].bitrate = 1900Mbps
*.switch14.eth[10].bitrate = 1500Mbps
*.switch14.eth[11].bitrate = 1900Mbps
*.switch14.eth[12].bitrate = 1200Mbps
*.switch14.eth[13].bitrate = 2200Mbps
*.switch14.eth[14].bitrate = 2300Mbps
*.host0.numApps = 14
*.host0.app[0].typename = "UdpSinkApp"
*.host0.app[0].io.localPort = 1000
*.host0.app[1].typename = "UdpSinkApp"
*.host0.app[1].io.localPort = 1001
*.host0.app[2].typename = "UdpSinkApp"
*.host0.app[2].io.localPort = 1002
*.host0.app[3].typename = "UdpBasicApp"
*.host0.app[3].destAddresses = "host6"
*.host0.app[3].source.packetNameFormat = "%M-%m-%c"
*.host0.app[3].source.displayStringTextFormat = "sent %p pk (%l)"
*.host0.app[3].messageLength = 20B
*.host0.app[3].sendInterval = 1ms
*.host0.app[3].startTime = 1ms
*.host0.app[3].stopTime = 9ms
*.host0.app[3].display-name = "type2_7"
*.host0.app[3].destPort = 1001
*.host0.app[4].typename = "UdpBasicApp"
*.host0.app[4].destAddresses = "host6"
*.host0.app[4].source.packetNameFormat = "%M-%m-%c"
*.host0.app[4].source.displayStringTextFormat = "sent %p pk (%l)"
*.host0.app[4].messageLength = 20B
*.host0.app[4].sendInterval = 1ms
*.host0.app[4].startTime = 13ms
*.host0.app[4].stopTime = 17ms
*.host0.app[4].display-name = "type2_7"
*.host0.app[4].destPort = 1001
*.host0.app[5].typename = "UdpBasicApp"
*.host0.app[5].destAddresses = "host6"
*.host0.app[5].source.packetNameFormat = "%M-%m-%c"
*.host0.app[5].source.displayStringTextFormat = "sent %p pk (%l)"
*.host0.app[5].messageLength = 20B
*.host0.app[5].sendInterval = 1ms
*.host0.app[5].startTime = 20ms
*.host0.app[5].stopTime = 23ms
*.host0.app[5].display-name = "type2_7"
*.host0.app[5].destPort = 1001
*.host0.app[6].typename = "UdpBasicApp"
*.host0.app[6].destAddresses = "host6"
*.host0.app[6].source.packetNameFormat = "%M-%m-%c"
*.host0.app[6].source.displayStringTextFormat = "sent %p pk (%l)"
*.host0.app[6].messageLength = 20B
*.host0.app[6].sendInterval = 1ms
*.host0.app[6].startTime = 25ms
*.host0.app[6].stopTime = 32ms
*.host0.app[6].display-name = "type2_7"
*.host0.app[6].destPort = 1001
*.host0.app[7].typename = "UdpBasicApp"
*.host0.app[7].destAddresses = "host6"
*.host0.app[7].source.packetNameFormat = "%M-%m-%c"
*.host0.app[7].source.displayStringTextFormat = "sent %p pk (%l)"
*.host0.app[7].messageLength = 20B
*.host0.app[7].sendInterval = 1ms
*.host0.app[7].startTime = 58ms
*.host0.app[7].stopTime = 86ms
*.host0.app[7].display-name = "type2_7"
*.host0.app[7].destPort = 1001
*.host0.app[8].typename = "UdpBasicApp"
*.host0.app[8].destAddresses = "host6"
*.host0.app[8].source.packetNameFormat = "%M-%m-%c"
*.host0.app[8].source.displayStringTextFormat = "sent %p pk (%l)"
*.host0.app[8].messageLength = 20B
*.host0.app[8].sendInterval = 1ms
*.host0.app[8].startTime = 91ms
*.host0.app[8].stopTime = 100ms
*.host0.app[8].display-name = "type2_7"
*.host0.app[8].destPort = 1001
*.host0.app[9].typename = "UdpBasicApp"
*.host0.app[9].destAddresses = "host1"
*.host0.app[9].source.packetNameFormat = "%M-%m-%c"
*.host0.app[9].source.displayStringTextFormat = "sent %p pk (%l)"
*.host0.app[9].messageLength = 20B
*.host0.app[9].sendInterval = 1ms
*.host0.app[9].startTime = 12ms
*.host0.app[9].stopTime = 15ms
*.host0.app[9].display-name = "type2_10"
*.host0.app[9].destPort = 1004
*.host0.app[10].typename = "UdpBasicApp"
*.host0.app[10].destAddresses = "host1"
*.host0.app[10].source.packetNameFormat = "%M-%m-%c"
*.host0.app[10].source.displayStringTextFormat = "sent %p pk (%l)"
*.host0.app[10].messageLength = 20B
*.host0.app[10].sendInterval = 1ms
*.host0.app[10].startTime = 36ms
*.host0.app[10].stopTime = 44ms
*.host0.app[10].display-name = "type2_10"
*.host0.app[10].destPort = 1004
*.host0.app[11].typename = "UdpBasicApp"
*.host0.app[11].destAddresses = "host1"
*.host0.app[11].source.packetNameFormat = "%M-%m-%c"
*.host0.app[11].source.displayStringTextFormat = "sent %p pk (%l)"
*.host0.app[11].messageLength = 20B
*.host0.app[11].sendInterval = 1ms
*.host0.app[11].startTime = 66ms
*.host0.app[11].stopTime = 77ms
*.host0.app[11].display-name = "type2_10"
*.host0.app[11].destPort = 1004
*.host0.app[12].typename = "UdpBasicApp"
*.host0.app[12].destAddresses = "host1"
*.host0.app[12].source.packetNameFormat = "%M-%m-%c"
*.host0.app[12].source.displayStringTextFormat = "sent %p pk (%l)"
*.host0.app[12].messageLength = 20B
*.host0.app[12].sendInterval = 1ms
*.host0.app[12].startTime = 83ms
*.host0.app[12].stopTime = 88ms
*.host0.app[12].display-name = "type2_10"
*.host0.app[12].destPort = 1004
*.host0.app[13].typename = "UdpBasicApp"
*.host0.app[13].destAddresses = "host1"
*.host0.app[13].source.packetNameFormat = "%M-%m-%c"
*.host0.app[13].source.displayStringTextFormat = "sent %p pk (%l)"
*.host0.app[13].messageLength = 20B
*.host0.app[13].sendInterval = 1ms
*.host0.app[13].startTime = 89ms
*.host0.app[13].stopTime = 96ms
*.host0.app[13].display-name = "type2_10"
*.host0.app[13].destPort = 1004
*.host1.numApps = 18
*.host1.app[0].typename = "UdpSourceApp"
*.host1.app[0].io.destAddress = "host6"
*.host1.app[0].source.packetNameFormat = "%M-%m-%c"
*.host1.app[0].source.displayStringTextFormat = "sent %p pk (%l)"
*.host1.app[0].source.packetLength = 24B
*.host1.app[0].source.productionInterval = 1ms
*.host1.app[0].display-name = "type1_1"
*.host1.app[0].io.destPort = 1000
*.host1.app[1].typename = "UdpSinkApp"
*.host1.app[1].io.localPort = 1000
*.host1.app[2].typename = "UdpSinkApp"
*.host1.app[2].io.localPort = 1001
*.host1.app[3].typename = "UdpSinkApp"
*.host1.app[3].io.localPort = 1002
*.host1.app[4].typename = "UdpSinkApp"
*.host1.app[4].io.localPort = 1003
*.host1.app[5].typename = "UdpBasicApp"
*.host1.app[5].destAddresses = "host7"
*.host1.app[5].source.packetNameFormat = "%M-%m-%c"
*.host1.app[5].source.displayStringTextFormat = "sent %p pk (%l)"
*.host1.app[5].messageLength = 24B
*.host1.app[5].sendInterval = 1ms
*.host1.app[5].startTime = 3ms
*.host1.app[5].stopTime = 12ms
*.host1.app[5].display-name = "type2_3"
*.host1.app[5].destPort = 1001
*.host1.app[6].typename = "UdpBasicApp"
*.host1.app[6].destAddresses = "host7"
*.host1.app[6].source.packetNameFormat = "%M-%m-%c"
*.host1.app[6].source.displayStringTextFormat = "sent %p pk (%l)"
*.host1.app[6].messageLength = 24B
*.host1.app[6].sendInterval = 1ms
*.host1.app[6].startTime = 17ms
*.host1.app[6].stopTime = 19ms
*.host1.app[6].display-name = "type2_3"
*.host1.app[6].destPort = 1001
*.host1.app[7].typename = "UdpBasicApp"
*.host1.app[7].destAddresses = "host7"
*.host1.app[7].source.packetNameFormat = "%M-%m-%c"
*.host1.app[7].source.displayStringTextFormat = "sent %p pk (%l)"
*.host1.app[7].messageLength = 24B
*.host1.app[7].sendInterval = 1ms
*.host1.app[7].startTime = 31ms
*.host1.app[7].stopTime = 42ms
*.host1.app[7].display-name = "type2_3"
*.host1.app[7].destPort = 1001
*.host1.app[8].typename = "UdpBasicApp"
*.host1.app[8].destAddresses = "host7"
*.host1.app[8].source.packetNameFormat = "%M-%m-%c"
*.host1.app[8].source.displayStringTextFormat = "sent %p pk (%l)"
*.host1.app[8].messageLength = 24B
*.host1.app[8].sendInterval = 1ms
*.host1.app[8].startTime = 44ms
*.host1.app[8].stopTime = 74ms
*.host1.app[8].display-name = "type2_3"
*.host1.app[8].destPort = 1001
*.host1.app[9].typename = "UdpBasicApp"
*.host1.app[9].destAddresses = "host7"
*.host1.app[9].source.packetNameFormat = "%M-%m-%c"
*.host1.app[9].source.displayStringTextFormat = "sent %p pk (%l)"
*.host1.app[9].messageLength = 24B
*.host1.app[9].sendInterval = 1ms
*.host1.app[9].startTime = 93ms
*.host1.app[9].stopTime = 100ms
*.host1.app[9].display-name = "type2_3"
*.host1.app[9].destPort = 1001
*.host1.app[10].typename = "UdpSinkApp"
*.host1.app[10].io.localPort = 1004
*.host1.app[11].typename = "UdpBasicApp"
*.host1.app[11].destAddresses = "host8"
*.host1.app[11].source.packetNameFormat = "%M-%m-%c"
*.host1.app[11].source.displayStringTextFormat = "sent %p pk (%l)"
*.host1.app[11].messageLength = 14B
*.host1.app[11].sendInterval = 1ms
*.host1.app[11].startTime = 0ms
*.host1.app[11].stopTime = 3ms
*.host1.app[11].display-name = "type2_12"
*.host1.app[11].destPort = 1004
*.host1.app[12].typename = "UdpBasicApp"
*.host1.app[12].destAddresses = "host8"
*.host1.app[12].source.packetNameFormat = "%M-%m-%c"
*.host1.app[12].source.displayStringTextFormat = "sent %p pk (%l)"
*.host1.app[12].messageLength = 14B
*.host1.app[12].sendInterval = 1ms
*.host1.app[12].startTime = 4ms
*.host1.app[12].stopTime = 8ms
*.host1.app[12].display-name = "type2_12"
*.host1.app[12].destPort = 1004
*.host1.app[13].typename = "UdpBasicApp"
*.host1.app[13].destAddresses = "host8"
*.host1.app[13].source.packetNameFormat = "%M-%m-%c"
*.host1.app[13].source.displayStringTextFormat = "sent %p pk (%l)"
*.host1.app[13].messageLength = 14B
*.host1.app[13].sendInterval = 1ms
*.host1.app[13].startTime = 9ms
*.host1.app[13].stopTime = 11ms
*.host1.app[13].display-name = "type2_12"
*.host1.app[13].destPort = 1004
*.host1.app[14].typename = "UdpBasicApp"
*.host1.app[14].destAddresses = "host8"
*.host1.app[14].source.packetNameFormat = "%M-%m-%c"
*.host1.app[14].source.displayStringTextFormat = "sent %p pk (%l)"
*.host1.app[14].messageLength = 14B
*.host1.app[14].sendInterval = 1ms
*.host1.app[14].startTime = 25ms
*.host1.app[14].stopTime = 31ms
*.host1.app[14].display-name = "type2_12"
*.host1.app[14].destPort = 1004
*.host1.app[15].typename = "UdpBasicApp"
*.host1.app[15].destAddresses = "host8"
*.host1.app[15].source.packetNameFormat = "%M-%m-%c"
*.host1.app[15].source.displayStringTextFormat = "sent %p pk (%l)"
*.host1.app[15].messageLength = 14B
*.host1.app[15].sendInterval = 1ms
*.host1.app[15].startTime = 50ms
*.host1.app[15].stopTime = 57ms
*.host1.app[15].display-name = "type2_12"
*.host1.app[15].destPort = 1004
*.host1.app[16].typename = "UdpBasicApp"
*.host1.app[16].destAddresses = "host8"
*.host1.app[16].source.packetNameFormat = "%M-%m-%c"
*.host1.app[16].source.displayStringTextFormat = "sent %p pk (%l)"
*.host1.app[16].messageLength = 14B
*.host1.app[16].sendInterval = 1ms
*.host1.app[16].startTime = 76ms
*.host1.app[16].stopTime = 87ms
*.host1.app[16].display-name = "type2_12"
*.host1.app[16].destPort = 1004
*.host1.app[17].typename = "UdpBasicApp"
*.host1.app[17].destAddresses = "host8"
*.host1.app[17].source.packetNameFormat = "%M-%m-%c"
*.host1.app[17].source.displayStringTextFormat = "sent %p pk (%l)"
*.host1.app[17].messageLength = 14B
*.host1.app[17].sendInterval = 1ms
*.host1.app[17].startTime = 96ms
*.host1.app[17].stopTime = 100ms
*.host1.app[17].display-name = "type2_12"
*.host1.app[17].destPort = 1004
*.host2.numApps = 12
*.host2.app[0].typename = "UdpBasicApp"
*.host2.app[0].destAddresses = "host0"
*.host2.app[0].source.packetNameFormat = "%M-%m-%c"
*.host2.app[0].source.displayStringTextFormat = "sent %p pk (%l)"
*.host2.app[0].messageLength = 17B
*.host2.app[0].sendInterval = 1ms
*.host2.app[0].startTime = 0ms
*.host2.app[0].stopTime = 6ms
*.host2.app[0].display-name = "type2_6"
*.host2.app[0].destPort = 1002
*.host2.app[1].typename = "UdpBasicApp"
*.host2.app[1].destAddresses = "host0"
*.host2.app[1].source.packetNameFormat = "%M-%m-%c"
*.host2.app[1].source.displayStringTextFormat = "sent %p pk (%l)"
*.host2.app[1].messageLength = 17B
*.host2.app[1].sendInterval = 1ms
*.host2.app[1].startTime = 8ms
*.host2.app[1].stopTime = 33ms
*.host2.app[1].display-name = "type2_6"
*.host2.app[1].destPort = 1002
*.host2.app[2].typename = "UdpBasicApp"
*.host2.app[2].destAddresses = "host0"
*.host2.app[2].source.packetNameFormat = "%M-%m-%c"
*.host2.app[2].source.displayStringTextFormat = "sent %p pk (%l)"
*.host2.app[2].messageLength = 17B
*.host2.app[2].sendInterval = 1ms
*.host2.app[2].startTime = 36ms
*.host2.app[2].stopTime = 43ms
*.host2.app[2].display-name = "type2_6"
*.host2.app[2].destPort = 1002
*.host2.app[3].typename = "UdpBasicApp"
*.host2.app[3].destAddresses = "host0"
*.host2.app[3].source.packetNameFormat = "%M-%m-%c"
*.host2.app[3].source.displayStringTextFormat = "sent %p pk (%l)"
*.host2.app[3].messageLength = 17B
*.host2.app[3].sendInterval = 1ms
*.host2.app[3].startTime = 74ms
*.host2.app[3].stopTime = 81ms
*.host2.app[3].display-name = "type2_6"
*.host2.app[3].destPort = 1002
*.host2.app[4].typename = "UdpBasicApp"
*.host2.app[4].destAddresses = "host0"
*.host2.app[4].source.packetNameFormat = "%M-%m-%c"
*.host2.app[4].source.displayStringTextFormat = "sent %p pk (%l)"
*.host2.app[4].messageLength = 17B
*.host2.app[4].sendInterval = 1ms
*.host2.app[4].startTime = 88ms
*.host2.app[4].stopTime = 90ms
*.host2.app[4].display-name = "type2_6"
*.host2.app[4].destPort = 1002
*.host2.app[5].typename = "UdpBasicApp"
*.host2.app[5].destAddresses = "host7"
*.host2.app[5].source.packetNameFormat = "%M-%m-%c"
*.host2.app[5].source.displayStringTextFormat = "sent %p pk (%l)"
*.host2.app[5].messageLength = 18B
*.host2.app[5].sendInterval = 1ms
*.host2.app[5].startTime = 1ms
*.host2.app[5].stopTime = 6ms
*.host2.app[5].display-name = "type2_14"
*.host2.app[5].destPort = 1002
*.host2.app[6].typename = "UdpBasicApp"
*.host2.app[6].destAddresses = "host7"
*.host2.app[6].source.packetNameFormat = "%M-%m-%c"
*.host2.app[6].source.displayStringTextFormat = "sent %p pk (%l)"
*.host2.app[6].messageLength = 18B
*.host2.app[6].sendInterval = 1ms
*.host2.app[6].startTime = 9ms
*.host2.app[6].stopTime = 12ms
*.host2.app[6].display-name = "type2_14"
*.host2.app[6].destPort = 1002
*.host2.app[7].typename = "UdpBasicApp"
*.host2.app[7].destAddresses = "host7"
*.host2.app[7].source.packetNameFormat = "%M-%m-%c"
*.host2.app[7].source.displayStringTextFormat = "sent %p pk (%l)"
*.host2.app[7].messageLength = 18B
*.host2.app[7].sendInterval = 1ms
*.host2.app[7].startTime = 20ms
*.host2.app[7].stopTime = 23ms
*.host2.app[7].display-name = "type2_14"
*.host2.app[7].destPort = 1002
*.host2.app[8].typename = "UdpBasicApp"
*.host2.app[8].destAddresses = "host7"
*.host2.app[8].source.packetNameFormat = "%M-%m-%c"
*.host2.app[8].source.displayStringTextFormat = "sent %p pk (%l)"
*.host2.app[8].messageLength = 18B
*.host2.app[8].sendInterval = 1ms
*.host2.app[8].startTime = 48ms
*.host2.app[8].stopTime = 60ms
*.host2.app[8].display-name = "type2_14"
*.host2.app[8].destPort = 1002
*.host2.app[9].typename = "UdpBasicApp"
*.host2.app[9].destAddresses = "host7"
*.host2.app[9].source.packetNameFormat = "%M-%m-%c"
*.host2.app[9].source.displayStringTextFormat = "sent %p pk (%l)"
*.host2.app[9].messageLength = 18B
*.host2.app[9].sendInterval = 1ms
*.host2.app[9].startTime = 61ms
*.host2.app[9].stopTime = 72ms
*.host2.app[9].display-name = "type2_14"
*.host2.app[9].destPort = 1002
*.host2.app[10].typename = "UdpBasicApp"
*.host2.app[10].destAddresses = "host7"
*.host2.app[10].source.packetNameFormat = "%M-%m-%c"
*.host2.app[10].source.displayStringTextFormat = "sent %p pk (%l)"
*.host2.app[10].messageLength = 18B
*.host2.app[10].sendInterval = 1ms
*.host2.app[10].startTime = 81ms
*.host2.app[10].stopTime = 84ms
*.host2.app[10].display-name = "type2_14"
*.host2.app[10].destPort = 1002
*.host2.app[11].typename = "UdpBasicApp"
*.host2.app[11].destAddresses = "host7"
*.host2.app[11].source.packetNameFormat = "%M-%m-%c"
*.host2.app[11].source.displayStringTextFormat = "sent %p pk (%l)"
*.host2.app[11].messageLength = 18B
*.host2.app[11].sendInterval = 1ms
*.host2.app[11].startTime = 95ms
*.host2.app[11].stopTime = 100ms
*.host2.app[11].display-name = "type2_14"
*.host2.app[11].destPort = 1002
*.host3.numApps = 3
*.host3.app[0].typename = "UdpSourceApp"
*.host3.app[0].io.destAddress = "host10"
*.host3.app[0].source.packetNameFormat = "%M-%m-%c"
*.host3.app[0].source.displayStringTextFormat = "sent %p pk (%l)"
*.host3.app[0].source.packetLength = 16B
*.host3.app[0].source.productionInterval = 1ms
*.host3.app[0].display-name = "type1_0"
*.host3.app[0].io.destPort = 1000
*.host3.app[1].typename = "UdpSinkApp"
*.host3.app[1].io.localPort = 1000
*.host3.app[2].typename = "UdpSinkApp"
*.host3.app[2].io.localPort = 1001
*.host4.numApps = 5
*.host4.app[0].typename = "UdpSourceApp"
*.host4.app[0].io.destAddress = "host1"
*.host4.app[0].source.packetNameFormat = "%M-%m-%c"
*.host4.app[0].source.displayStringTextFormat = "sent %p pk (%l)"
*.host4.app[0].source.packetLength = 15B
*.host4.app[0].source.productionInterval = 1ms
*.host4.app[0].display-name = "type1_10"
*.host4.app[0].io.destPort = 1003
*.host4.app[1].typename = "UdpSinkApp"
*.host4.app[1].io.localPort = 1000
*.host4.app[2].typename = "UdpBasicApp"
*.host4.app[2].destAddresses = "host8"
*.host4.app[2].source.packetNameFormat = "%M-%m-%c"
*.host4.app[2].source.displayStringTextFormat = "sent %p pk (%l)"
*.host4.app[2].messageLength = 21B
*.host4.app[2].sendInterval = 1ms
*.host4.app[2].startTime = 2ms
*.host4.app[2].stopTime = 38ms
*.host4.app[2].display-name = "type2_4"
*.host4.app[2].destPort = 1002
*.host4.app[3].typename = "UdpBasicApp"
*.host4.app[3].destAddresses = "host8"
*.host4.app[3].source.packetNameFormat = "%M-%m-%c"
*.host4.app[3].source.displayStringTextFormat = "sent %p pk (%l)"
*.host4.app[3].messageLength = 21B
*.host4.app[3].sendInterval = 1ms
*.host4.app[3].startTime = 61ms
*.host4.app[3].stopTime = 72ms
*.host4.app[3].display-name = "type2_4"
*.host4.app[3].destPort = 1002
*.host4.app[4].typename = "UdpSinkApp"
*.host4.app[4].io.localPort = 1001
*.host5.numApps = 31
*.host5.app[0].typename = "UdpSourceApp"
*.host5.app[0].io.destAddress = "host1"
*.host5.app[0].source.packetNameFormat = "%M-%m-%c"
*.host5.app[0].source.displayStringTextFormat = "sent %p pk (%l)"
*.host5.app[0].source.packetLength = 16B
*.host5.app[0].source.productionInterval = 1ms
*.host5.app[0].display-name = "type1_5"
*.host5.app[0].io.destPort = 1002
*.host5.app[1].typename = "UdpSourceApp"
*.host5.app[1].io.destAddress = "host7"
*.host5.app[1].source.packetNameFormat = "%M-%m-%c"
*.host5.app[1].source.displayStringTextFormat = "sent %p pk (%l)"
*.host5.app[1].source.packetLength = 21B
*.host5.app[1].source.productionInterval = 1ms
*.host5.app[1].display-name = "type1_6"
*.host5.app[1].io.destPort = 1000
*.host5.app[2].typename = "UdpSourceApp"
*.host5.app[2].io.destAddress = "host4"
*.host5.app[2].source.packetNameFormat = "%M-%m-%c"
*.host5.app[2].source.displayStringTextFormat = "sent %p pk (%l)"
*.host5.app[2].source.packetLength = 20B
*.host5.app[2].source.productionInterval = 1ms
*.host5.app[2].display-name = "type1_12"
*.host5.app[2].io.destPort = 1000
*.host5.app[3].typename = "UdpBasicApp"
*.host5.app[3].destAddresses = "host3"
*.host5.app[3].source.packetNameFormat = "%M-%m-%c"
*.host5.app[3].source.displayStringTextFormat = "sent %p pk (%l)"
*.host5.app[3].messageLength = 20B
*.host5.app[3].sendInterval = 1ms
*.host5.app[3].startTime = 10ms
*.host5.app[3].stopTime = 19ms
*.host5.app[3].display-name = "type2_1"
*.host5.app[3].destPort = 1001
*.host5.app[4].typename = "UdpBasicApp"
*.host5.app[4].destAddresses = "host3"
*.host5.app[4].source.packetNameFormat = "%M-%m-%c"
*.host5.app[4].source.displayStringTextFormat = "sent %p pk (%l)"
*.host5.app[4].messageLength = 20B
*.host5.app[4].sendInterval = 1ms
*.host5.app[4].startTime = 33ms
*.host5.app[4].stopTime = 39ms
*.host5.app[4].display-name = "type2_1"
*.host5.app[4].destPort = 1001
*.host5.app[5].typename = "UdpBasicApp"
*.host5.app[5].destAddresses = "host3"
*.host5.app[5].source.packetNameFormat = "%M-%m-%c"
*.host5.app[5].source.displayStringTextFormat = "sent %p pk (%l)"
*.host5.app[5].messageLength = 20B
*.host5.app[5].sendInterval = 1ms
*.host5.app[5].startTime = 42ms
*.host5.app[5].stopTime = 45ms
*.host5.app[5].display-name = "type2_1"
*.host5.app[5].destPort = 1001
*.host5.app[6].typename = "UdpBasicApp"
*.host5.app[6].destAddresses = "host3"
*.host5.app[6].source.packetNameFormat = "%M-%m-%c"
*.host5.app[6].source.displayStringTextFormat = "sent %p pk (%l)"
*.host5.app[6].messageLength = 20B
*.host5.app[6].sendInterval = 1ms
*.host5.app[6].startTime = 53ms
*.host5.app[6].stopTime = 58ms
*.host5.app[6].display-name = "type2_1"
*.host5.app[6].destPort = 1001
*.host5.app[7].typename = "UdpBasicApp"
*.host5.app[7].destAddresses = "host3"
*.host5.app[7].source.packetNameFormat = "%M-%m-%c"
*.host5.app[7].source.displayStringTextFormat = "sent %p pk (%l)"
*.host5.app[7].messageLength = 20B
*.host5.app[7].sendInterval = 1ms
*.host5.app[7].startTime = 62ms
*.host5.app[7].stopTime = 74ms
*.host5.app[7].display-name = "type2_1"
*.host5.app[7].destPort = 1001
*.host5.app[8].typename = "UdpBasicApp"
*.host5.app[8].destAddresses = "host3"
*.host5.app[8].source.packetNameFormat = "%M-%m-%c"
*.host5.app[8].source.displayStringTextFormat = "sent %p pk (%l)"
*.host5.app[8].messageLength = 20B
*.host5.app[8].sendInterval = 1ms
*.host5.app[8].startTime = 84ms
*.host5.app[8].stopTime = 85ms
*.host5.app[8].display-name = "type2_1"
*.host5.app[8].destPort = 1001
*.host5.app[9].typename = "UdpBasicApp"
*.host5.app[9].destAddresses = "host3"
*.host5.app[9].source.packetNameFormat = "%M-%m-%c"
*.host5.app[9].source.displayStringTextFormat = "sent %p pk (%l)"
*.host5.app[9].messageLength = 20B
*.host5.app[9].sendInterval = 1ms
*.host5.app[9].startTime = 94ms
*.host5.app[9].stopTime = 100ms
*.host5.app[9].display-name = "type2_1"
*.host5.app[9].destPort = 1001
*.host5.app[10].typename = "UdpBasicApp"
*.host5.app[10].destAddresses = "host8"
*.host5.app[10].source.packetNameFormat = "%M-%m-%c"
*.host5.app[10].source.displayStringTextFormat = "sent %p pk (%l)"
*.host5.app[10].messageLength = 21B
*.host5.app[10].sendInterval = 1ms
*.host5.app[10].startTime = 3ms
*.host5.app[10].stopTime = 8ms
*.host5.app[10].display-name = "type2_5"
*.host5.app[10].destPort = 1003
*.host5.app[11].typename = "UdpBasicApp"
*.host5.app[11].destAddresses = "host8"
*.host5.app[11].source.packetNameFormat = "%M-%m-%c"
*.host5.app[11].source.displayStringTextFormat = "sent %p pk (%l)"
*.host5.app[11].messageLength = 21B
*.host5.app[11].sendInterval = 1ms
*.host5.app[11].startTime = 20ms
*.host5.app[11].stopTime = 31ms
*.host5.app[11].display-name = "type2_5"
*.host5.app[11].destPort = 1003
*.host5.app[12].typename = "UdpBasicApp"
*.host5.app[12].destAddresses = "host8"
*.host5.app[12].source.packetNameFormat = "%M-%m-%c"
*.host5.app[12].source.displayStringTextFormat = "sent %p pk (%l)"
*.host5.app[12].messageLength = 21B
*.host5.app[12].sendInterval = 1ms
*.host5.app[12].startTime = 35ms
*.host5.app[12].stopTime = 46ms