[General]
network = TSN_multipath
sim-time-limit = 100ms
*.macForwardingTableConfigurator.typename = ""
*.*.hasStreamRedundancy = true
*.*.bridging.streamRelay.typename = "StreamRelayLayer"
*.*.bridging.streamCoder.typename = "StreamCoderLayer"
*.streamRedundancyConfigurator.typename = "StreamRedundancyConfigurator"
*.host0.eth[0].bitrate = 1000Mbps
*.switch0.eth[0].bitrate = 1000Mbps
*.switch0.eth[1].bitrate = 1400Mbps
*.switch0.eth[2].bitrate = 1400Mbps
*.switch0.eth[3].bitrate = 1900Mbps
*.switch0.eth[4].bitrate = 1600Mbps
*.switch0.eth[5].bitrate = 1800Mbps
*.switch0.eth[6].bitrate = 1300Mbps
*.switch0.eth[7].bitrate = 1300Mbps
*.switch0.eth[8].bitrate = 2000Mbps
*.switch0.eth[9].bitrate = 1200Mbps
*.switch0.eth[10].bitrate = 2100Mbps
*.switch0.eth[11].bitrate = 1200Mbps
*.switch0.eth[12].bitrate = 2100Mbps
*.switch0.eth[13].bitrate = 2300Mbps
*.switch0.eth[14].bitrate = 2400Mbps
*.switch0.eth[15].bitrate = 1300Mbps
*.switch0.eth[16].bitrate = 1400Mbps
*.host1.eth[0].bitrate = 1000Mbps
*.switch1.eth[0].bitrate = 1000Mbps
*.switch1.eth[1].bitrate = 2100Mbps
*.switch1.eth[2].bitrate = 1300Mbps
*.switch1.eth[3].bitrate = 2300Mbps
*.switch1.eth[4].bitrate = 1600Mbps
*.switch1.eth[5].bitrate = 1700Mbps
*.switch1.eth[6].bitrate = 1300Mbps
*.switch1.eth[7].bitrate = 1200Mbps
*.switch1.eth[8].bitrate = 1400Mbps
*.switch1.eth[9].bitrate = 1200Mbps
*.switch1.eth[10].bitrate = 1800Mbps
*.switch1.eth[11].bitrate = 2100Mbps
*.switch1.eth[12].bitrate = 2300Mbps
*.switch1.eth[13].bitrate = 1400Mbps
*.switch1.eth[14].bitrate = 2400Mbps
*.switch1.eth[15].bitrate = 1800Mbps
*.switch1.eth[16].bitrate = 1300Mbps
*.host2.eth[0].bitrate = 1000Mbps
*.switch2.eth[0].bitrate = 1000Mbps
*.switch2.eth[1].bitrate = 1300Mbps
*.switch2.eth[2].bitrate = 1200Mbps
*.switch2.eth[3].bitrate = 2100Mbps
*.switch2.eth[4].bitrate = 1400Mbps
*.switch2.eth[5].bitrate = 1300Mbps
*.switch2.eth[6].bitrate = 1800Mbps
*.switch2.eth[7].bitrate = 1500Mbps
*.switch2.eth[8].bitrate = 2200Mbps
*.switch2.eth[9].bitrate = 2300Mbps
*.switch2.eth[10].bitrate = 2100Mbps
*.switch2.eth[11].bitrate = 1800Mbps
*.switch2.eth[12].bitrate = 2300Mbps
*.switch2.eth[13].bitrate = 1700Mbps
*.switch2.eth[14].bitrate = 2200Mbps
*.switch2.eth[15].bitrate = 2400Mbps
*.switch2.eth[16].bitrate = 2400Mbps
*.switch2.eth[17].bitrate = 1900Mbps
*.switch2.eth[18].bitrate = 1200Mbps
*.switch2.eth[19].bitrate = 2000Mbps
*.switch2.eth[20].bitrate = 1500Mbps
*.switch2.eth[21].bitrate = 1500Mbps
*.host3.eth[0].bitrate = 1000Mbps
*.switch3.eth[0].bitrate = 1000Mbps
*.switch3.eth[1].bitrate = 1400Mbps
*.switch3.eth[2].bitrate = 2300Mbps
*.switch3.eth[3].bitrate = 1400Mbps
*.switch3.eth[4].bitrate = 2400Mbps
*.switch3.eth[5].bitrate = 1800Mbps
*.switch3.eth[6].bitrate = 1800Mbps
*.switch3.eth[7].bitrate = 2400Mbps
*.switch3.eth[8].bitrate = 2200Mbps
*.switch3.eth[9].bitrate = 2300Mbps
*.switch3.eth[10].bitrate = 1500Mbps
*.switch3.eth[11].bitrate = 1400Mbps
*.switch3.eth[12].bitrate = 2400Mbps
*.host4.eth[0].bitrate = 1000Mbps
*.switch4.eth[0].bitrate = 1000Mbps
*.switch4.eth[1].bitrate = 1600Mbps
*.switch4.eth[2].bitrate = 1300Mbps
*.switch4.eth[3].bitrate = 1800Mbps
*.switch4.eth[4].bitrate = 2400Mbps
*.switch4.eth[5].bitrate = 2200Mbps
*.switch4.eth[6].bitrate = 1800Mbps
*.switch4.eth[7].bitrate = 1700Mbps
*.switch4.eth[8].bitrate = 2400Mbps
*.switch4.eth[9].bitrate = 1400Mbps
*.switch4.eth[10].bitrate = 2300Mbps
*.host5.eth[0].bitrate = 1000Mbps
*.switch5.eth[0].bitrate = 1000Mbps
*.switch5.eth[1].bitrate = 1400Mbps
*.switch5.eth[2].bitrate = 1700Mbps
*.switch5.eth[3].bitrate = 1800Mbps
*.switch5.eth[4].bitrate = 2300Mbps
*.switch5.eth[5].bitrate = 2100Mbps
*.switch5.eth[6].bitrate = 2400Mbps
*.switch5.eth[7].bitrate = 1500Mbps
*.switch5.eth[8].bitrate = 2100Mbps
*.switch5.eth[9].bitrate = 1800Mbps
*.switch5.eth[10].bitrate = 2300Mbps
*.host6.eth[0].bitrate = 1000Mbps
*.switch6.eth[0].bitrate = 1000Mbps
*.switch6.eth[1].bitrate = 1900Mbps
*.switch6.eth[2].bitrate = 1300Mbps
*.switch6.eth[3].bitrate = 1500Mbps
*.switch6.eth[4].bitrate = 1400Mbps
*.switch6.eth[5].bitrate = 1700Mbps
*.switch6.eth[6].bitrate = 1500Mbps
*.switch6.eth[7].bitrate = 2000Mbps
*.switch6.eth[8].bitrate = 2000Mbps
*.switch6.eth[9].bitrate = 2100Mbps
*.host7.eth[0].bitrate = 1000Mbps
*.switch7.eth[0].bitrate = 1000Mbps
*.switch7.eth[1].bitrate = 1600Mbps
*.switch7.eth[2].bitrate = 2200Mbps
*.switch7.eth[3].bitrate = 2100Mbps
*.switch7.eth[4].bitrate = 1900Mbps
*.switch7.eth[5].bitrate = 2300Mbps
*.switch7.eth[6].bitrate = 1500Mbps
*.switch7.eth[7].bitrate = 1700Mbps
*.switch7.eth[8].bitrate = 1900Mbps
*.switch7.eth[9].bitrate = 2100Mbps
*.switch7.eth[10].bitrate = 1300Mbps
*.switch7.eth[11].bitrate = 1200Mbps
*.switch7.eth[12].bitrate = 2100Mbps
*.switch7.eth[13].bitrate = 2100Mbps
*.switch7.eth[14].bitrate = 2300Mbps
*.switch7.eth[15].bitrate = 2300Mbps
*.switch7.eth[16].bitrate = 1400Mbps
*.switch7.eth[17].bitrate = 2300Mbps
*.switch7.eth[18].bitrate = 2100Mbps
*.switch7.eth[19].bitrate = 2400Mbps
*.host8.eth[0].bitrate = 1000Mbps
*.switch8.eth[0].bitrate = 1000Mbps
*.switch8.eth[1].bitrate = 1200Mbps
*.switch8.eth[2].bitrate = 2300Mbps
*.switch8.eth[3].bitrate = 1900Mbps
*.switch8.eth[4].bitrate = 2300Mbps
*.switch8.eth[5].bitrate = 2300Mbps
*.switch8.eth[6].bitrate = 1200Mbps
*.switch8.eth[7].bitrate = 1700Mbps
*.switch8.eth[8].bitrate = 2100Mbps
*.switch8.eth[9].bitrate = 1900Mbps
*.switch8.eth[10].bitrate = 2300Mbps
*.host9.eth[0].bitrate = 1000Mbps
*.switch9.eth[0].bitrate = 1000Mbps
*.switch9.eth[1].bitrate = 1800Mbps
*.switch9.eth[2].bitrate = 1400Mbps
*.switch9.eth[3].bitrate = 2300Mbps
*.switch9.eth[4].bitrate = 2100Mbps
*.switch9.eth[5].bitrate = 1400Mbps
*.switch9.eth[6].bitrate = 1500Mbps
*.switch9.eth[7].bitrate = 2400Mbps
*.switch9.eth[8].bitrate = 2100Mbps
*.switch9.eth[9].bitrate = 2300Mbps
*.switch9.eth[10].bitrate = 2100Mbps
*.switch9.eth[11].bitrate = 2300Mbps
*.switch9.eth[12].bitrate = 1600Mbps
*.switch9.eth[13].bitrate = 1400Mbps
*.switch9.eth[14].bitrate = 1700Mbps
*.switch9.eth[15].bitrate = 1200Mbps
*.host10.eth[0].bitrate = 1000Mbps
*.switch10.eth[0].bitrate = 1000Mbps
*.switch10.eth[1].bitrate = 1300Mbps
*.switch10.eth[2].bitrate = 2100Mbps
*.switch10.eth[3].bitrate = 2100Mbps
*.switch10.eth[4].bitrate = 1300Mbps
*.switch10.eth[5].bitrate = 2300Mbps
*.switch10.eth[6].bitrate = 2400Mbps
*.switch10.eth[7].bitrate = 1500Mbps
*.switch10.eth[8].bitrate = 1400Mbps
*.switch10.eth[9].bitrate = 1800Mbps
*.switch10.eth[10].bitrate = 1700Mbps
*.switch10.eth[11].bitrate = 1200Mbps
*.switch10.eth[12].bitrate = 2300Mbps
*.host11.eth[0].bitrate = 1000Mbps
*.switch11.eth[0].bitrate = 1000Mbps
*.switch11.eth[1].bitrate = 1300Mbps
*.switch11.eth[2].bitrate = 1200Mbps
*.switch11.eth[3].bitrate = 1800Mbps
*.switch11.eth[4].bitrate = 1800Mbps
*.switch11.eth[5].bitrate = 1400Mbps
*.switch11.eth[6].bitrate = 1200Mbps
*.switch11.eth[7].bitrate = 1600Mbps
*.switch11.eth[8].bitrate = 1300Mbps
*.switch11.eth[9].bitrate = 2400Mbps
*.switch11.eth[10].bitrate = 2000Mbps
*.switch11.eth[11].bitrate = 1400Mbps
*.switch11.eth[12].bitrate = 1800Mbps
*.switch11.eth[13].bitrate = 2000Mbps
*.switch11.eth[14].bitrate = 2300Mbps
*.switch11.eth[15].bitrate = 1900Mbps
*.switch11.eth[16].bitrate = 1700Mbps
*.switch11.eth[17].bitrate = 1200Mbps
*.switch11.eth[18].bitrate = 1900Mbps
*.switch11.eth[19].bitrate = 2200Mbps
*.switch11.eth[20].bitrate = 1600Mbps
*.switch11.eth[21].bitrate = 1800Mbps
*.host12.eth[0].bitrate = 1000Mbps
*.switch12.eth[0].bitrate = 1000Mbps
*.switch12.eth[1].bitrate = 2000Mbps
*.switch12.eth[2].bitrate = 1800Mbps
*.switch12.eth[3].bitrate = 2300Mbps
*.switch12.eth[4].bitrate = 2100Mbps
*.switch12.eth[5].bitrate = 1400Mbps
*.switch12.eth[6].bitrate = 1800Mbps
*.switch12.eth[7].bitrate = 1500Mbps
*.switch12.eth[8].bitrate = 2000Mbps
*.switch12.eth[9].bitrate = 2100Mbps
*.switch12.eth[10].bitrate = 1600Mbps
*.switch12.eth[11].bitrate = 2400Mbps
*.switch12.eth[12].bitrate = 2300Mbps
*.host13.eth[0].bitrate = 1000Mbps
*.switch13.eth[0].bitrate = 1000Mbps
*.switch13.eth[1].bitrate = 1200Mbps
*.switch13.eth[2].bitrate = 1700Mbps
*.switch13.eth[3].bitrate = 2400Mbps
*.switch13.eth[4].bitrate = 1800Mbps
*.switch13.eth[5].bitrate = 2400Mbps
*.switch13.eth[6].bitrate = 2100Mbps
*.switch13.eth[7].bitrate = 1700Mbps
*.switch13.eth[8].bitrate = 1900Mbps
*.switch13.eth[9].bitrate = 1400Mbps
*.switch13.eth[10].bitrate = 1800Mbps
*.switch13.eth[11].bitrate = 1500Mbps
*.switch13.eth[12].bitrate = 2400Mbps
*.switch13.eth[13].bitrate = 1400Mbps
*.switch13.eth[14].bitrate = 2300Mbps
*.switch13.eth[15].bitrate = 2100Mbps
*.switch13.eth[16].bitrate = 2400Mbps
*.switch13.eth[17].bitrate = 2300Mbps
*.switch13.eth[18].bitrate = 1200Mbps
*.switch13.eth[19].bitrate = 2300Mbps
*.switch13.eth[20].bitrate = 1800Mbps
*.switch13.eth[21].bitrate = 2300Mbps
*.host14.eth[0].bitrate = 1000Mbps
*.switch14.eth[0].bitrate = 1000Mbps
*.switch14.eth[1].bitrate = 2200Mbps
*.switch14.eth[2].bitrate = 2300Mbps
*.switch14.eth[3].bitrate = 2200Mbps
*.switch14.eth[4].bitrate = 2400Mbps
*.switch14.eth[5].bitrate = 1300Mbps
*.switch14.eth[6].bitrate = 2300Mbps
*.host0.numApps = 3
*.host0.app[0].typename = "UdpSourceApp"
*.host0.app[0].io.destAddress = "host7"
*.host0.app[0].source.packetNameFormat = "%M-%m-%c"
*.host0.app[0].source.displayStringTextFormat = "sent %p pk (%l)"
*.host0.app[0].source.packetLength = 19B
*.host0.app[0].source.productionInterval = 1ms
*.host0.app[0].display-name = "type1_2"
*.host0.app[0].io.destPort = 1000
*.host0.app[1].typename = "UdpSinkApp"
*.host0.app[1].io.localPort = 1000
*.host0.app[2].typename = "UdpSourceApp"
*.host0.app[2].io.destAddress = "host1"
*.host0.app[2].source.packetNameFormat = "%M-%m-%c"
*.host0.app[2].source.displayStringTextFormat = "sent %p pk (%l)"
*.host0.app[2].source.packetLength = 17B
*.host0.app[2].source.productionInterval = 1ms
*.host0.app[2].display-name = "type1_11"
*.host0.app[2].io.destPort = 1001
*.host1.numApps = 11
*.host1.app[0].typename = "UdpSinkApp"
*.host1.app[0].io.localPort = 1000
*.host1.app[1].typename = "UdpSinkApp"
*.host1.app[1].io.localPort = 1001
*.host1.app[2].typename = "UdpBasicApp"
*.host1.app[2].destAddresses = "host2"
*.host1.app[2].source.packetNameFormat = "%M-%m-%c"
*.host1.app[2].source.displayStringTextFormat = "sent %p pk (%l)"
*.host1.app[2].messageLength = 15B
*.host1.app[2].sendInterval = 1ms
*.host1.app[2].startTime = 13ms
*.host1.app[2].stopTime = 21ms
*.host1.app[2].display-name = "type2_10"
*.host1.app[2].destPort = 1005
*.host1.app[3].typename = "UdpBasicApp"
*.host1.app[3].destAddresses = "host2"
*.host1.app[3].source.packetNameFormat = "%M-%m-%c"
*.host1.app[3].source.displayStringTextFormat = "sent %p pk (%l)"
*.host1.app[3].messageLength = 15B
*.host1.app[3].sendInterval = 1ms
*.host1.app[3].startTime = 32ms
*.host1.app[3].stopTime = 44ms
*.host1.app[3].display-name = "type2_10"
*.host1.app[3].destPort = 1005
*.host1.app[4].typename = "UdpBasicApp"
*.host1.app[4].destAddresses = "host2"
*.host1.app[4].source.packetNameFormat = "%M-%m-%c"
*.host1.app[4].source.displayStringTextFormat = "sent %p pk (%l)"
*.host1.app[4].messageLength = 15B
*.host1.app[4].sendInterval = 1ms
*.host1.app[4].startTime = 48ms
*.host1.app[4].stopTime = 51ms
*.host1.app[4].display-name = "type2_10"
*.host1.app[4].destPort = 1005
*.host1.app[5].typename = "UdpBasicApp"
*.host1.app[5].destAddresses = "host2"
*.host1.app[5].source.packetNameFormat = "%M-%m-%c"
*.host1.app[5].source.displayStringTextFormat = "sent %p pk (%l)"
*.host1.app[5].messageLength = 15B
*.host1.app[5].sendInterval = 1ms
*.host1.app[5].startTime = 55ms
*.host1.app[5].stopTime = 56ms
*.host1.app[5].display-name = "type2_10"
*.host1.app[5].destPort = 1005
*.host1.app[6].typename = "UdpBasicApp"
*.host1.app[6].destAddresses = "host2"
*.host1.app[6].source.packetNameFormat = "%M-%m-%c"
*.host1.app[6].source.displayStringTextFormat = "sent %p pk (%l)"
*.host1.app[6].messageLength = 15B
*.host1.app[6].sendInterval = 1ms
*.host1.app[6].startTime = 57ms
*.host1.app[6].stopTime = 59ms
*.host1.app[6].display-name = "type2_10"
*.host1.app[6].destPort = 1005
*.host1.app[7].typename = "UdpBasicApp"
*.host1.app[7].destAddresses = "host2"
*.host1.app[7].source.packetNameFormat = "%M-%m-%c"
*.host1.app[7].source.displayStringTextFormat = "sent %p pk (%l)"
*.host1.app[7].messageLength = 15B
*.host1.app[7].sendInterval = 1ms
*.host1.app[7].startTime = 64ms
*.host1.app[7].stopTime = 65ms
*.host1.app[7].display-name = "type2_10"
*.host1.app[7].destPort = 1005
*.host1.app[8].typename = "UdpBasicApp"
*.host1.app[8].destAddresses = "host2"
*.host1.app[8].source.packetNameFormat = "%M-%m-%c"
*.host1.app[8].source.displayStringTextFormat = "sent %p pk (%l)"
*.host1.app[8].messageLength = 15B
*.host1.app[8].sendInterval = 1ms
*.host1.app[8].startTime = 80ms
*.host1.app[8].stopTime = 81ms
*.host1.app[8].display-name = "type2_10"
*.host1.app[8].destPort = 1005
*.host1.app[9].typename = "UdpBasicApp"
*.host1.app[9].destAddresses = "host2"
*.host1.app[9].source.packetNameFormat = "%M-%m-%c"
*.host1.app[9].source.displayStringTextFormat = "sent %p pk (%l)"
*.host1.app[9].messageLength = 15B
*.host1.app[9].sendInterval = 1ms
*.host1.app[9].startTime = 89ms
*.host1.app[9].stopTime = 91ms
*.host1.app[9].display-name = "type2_10"
*.host1.app[9].destPort = 1005
*.host1.app[10].typename = "UdpBasicApp"
*.host1.app[10].destAddresses = "host2"
*.host1.app[10].source.packetNameFormat = "%M-%m-%c"
*.host1.app[10].source.displayStringTextFormat = "sent %p pk (%l)"
*.host1.app[10].messageLength = 15B
*.host1.app[10].sendInterval = 1ms
*.host1.app[10].startTime = 96ms
*.host1.app[10].stopTime = 100ms
*.host1.app[10].display-name = "type2_10"
*.host1.app[10].destPort = 1005
*.host2.numApps = 7
*.host2.app[0].typename = "UdpSinkApp"
*.host2.app[0].io.localPort = 1000
*.host2.app[1].typename = "UdpSinkApp"
*.host2.app[1].io.localPort = 1001
*.host2.app[2].typename = "UdpSinkApp"
*.host2.app[2].io.localPort = 1002
*.host2.app[3].typename = "UdpSinkApp"
*.host2.app[3].io.localPort = 1003
*.host2.app[4].typename = "UdpSourceApp"
*.host2.app[4].io.destAddress = "host4"
*.host2.app[4].source.packetNameFormat = "%M-%m-%c"
*.host2.app[4].source.displayStringTextFormat = "sent %p pk (%l)"
*.host2.app[4].source.packetLength = 15B
*.host2.app[4].source.productionInterval = 1ms
*.host2.app[4].display-name = "type1_13"
*.host2.app[4].io.destPort = 1002
*.host2.app[5].typename = "UdpSinkApp"
*.host2.app[5].io.localPort = 1004
*.host2.app[6].typename = "UdpSinkApp"
*.host2.app[6].io.localPort = 1005
*.host3.numApps = 16
*.host3.app[0].typename = "UdpBasicApp"
*.host3.app[0].destAddresses = "host10"
*.host3.app[0].source.packetNameFormat = "%M-%m-%c"
*.host3.app[0].source.displayStringTextFormat = "sent %p pk (%l)"
*.host3.app[0].messageLength = 23B
*.host3.app[0].sendInterval = 1ms
*.host3.app[0].startTime = 7ms
*.host3.app[0].stopTime = 11ms
*.host3.app[0].display-name = "type2_2"
*.host3.app[0].destPort = 1002
*.host3.app[1].typename = "UdpBasicApp"
*.host3.app[1].destAddresses = "host10"
*.host3.app[1].source.packetNameFormat = "%M-%m-%c"
*.host3.app[1].source.displayStringTextFormat = "sent %p pk (%l)"
*.host3.app[1].messageLength = 23B
*.host3.app[1].sendInterval = 1ms
*.host3.app[1].startTime = 13ms
*.host3.app[1].stopTime = 35ms
*.host3.app[1].display-name = "type2_2"
*.host3.app[1].destPort = 1002
*.host3.app[2].typename = "UdpBasicApp"
*.host3.app[2].destAddresses = "host10"
*.host3.app[2].source.packetNameFormat = "%M-%m-%c"
*.host3.app[2].source.displayStringTextFormat = "sent %p pk (%l)"
*.host3.app[2].messageLength = 23B
*.host3.app[2].sendInterval = 1ms
*.host3.app[2].startTime = 40ms
*.host3.app[2].stopTime = 45ms
*.host3.app[2].display-name = "type2_2"
*.host3.app[2].destPort = 1002
*.host3.app[3].typename = "UdpBasicApp"
*.host3.app[3].destAddresses = "host10"
*.host3.app[3].source.packetNameFormat = "%M-%m-%c"
*.host3.app[3].source.displayStringTextFormat = "sent %p pk (%l)"
*.host3.app[3].messageLength = 23B
*.host3.app[3].sendInterval = 1ms
*.host3.app[3].startTime = 67ms
*.host3.app[3].stopTime = 72ms
*.host3.app[3].display-name = "type2_2"
*.host3.app[3].destPort = 1002
*.host3.app[4].typename = "UdpBasicApp"
*.host3.app[4].destAddresses = "host10"
*.host3.app[4].source.packetNameFormat = "%M-%m-%c"
*.host3.app[4].source.displayStringTextFormat = "sent %p pk (%l)"
*.host3.app[4].messageLength = 23B
*.host3.app[4].sendInterval = 1ms
*.host3.app[4].startTime = 73ms
*.host3.app[4].stopTime = 74ms
*.host3.app[4].display-name = "type2_2"
*.host3.app[4].destPort = 1002
*.host3.app[5].typename = "UdpBasicApp"
*.host3.app[5].destAddresses = "host10"
*.host3.app[5].source.packetNameFormat = "%M-%m-%c"
*.host3.app[5].source.displayStringTextFormat = "sent %p pk (%l)"
*.host3.app[5].messageLength = 23B
*.host3.app[5].sendInterval = 1ms
*.host3.app[5].startTime = 80ms
*.host3.app[5].stopTime = 84ms
*.host3.app[5].display-name = "type2_2"
*.host3.app[5].destPort = 1002
*.host3.app[6].typename = "UdpBasicApp"
*.host3.app[6].destAddresses = "host10"
*.host3.app[6].source.packetNameFormat = "%M-%m-%c"
*.host3.app[6].source.displayStringTextFormat = "sent %p pk (%l)"
*.host3.app[6].messageLength = 23B
*.host3.app[6].sendInterval = 1ms
*.host3.app[6].startTime = 92ms
*.host3.app[6].stopTime = 100ms
*.host3.app[6].display-name = "type2_2"
*.host3.app[6].destPort = 1002
*.host3.app[7].typename = "UdpSinkApp"
*.host3.app[7].io.localPort = 1000
*.host3.app[8].typename = "UdpBasicApp"
*.host3.app[8].destAddresses = "host12"
*.host3.app[8].source.packetNameFormat = "%M-%m-%c"
*.host3.app[8].source.displayStringTextFormat = "sent %p pk (%l)"
*.host3.app[8].messageLength = 19B
*.host3.app[8].sendInterval = 1ms
*.host3.app[8].startTime = 13ms
*.host3.app[8].stopTime = 19ms
*.host3.app[8].display-name = "type2_6"
*.host3.app[8].destPort = 1000
*.host3.app[9].typename = "UdpBasicApp"
*.host3.app[9].destAddresses = "host12"
*.host3.app[9].source.packetNameFormat = "%M-%m-%c"
*.host3.app[9].source.displayStringTextFormat = "sent %p pk (%l)"
*.host3.app[9].messageLength = 19B
*.host3.app[9].sendInterval = 1ms
*.host3.app[9].startTime = 23ms
*.host3.app[9].stopTime = 28ms
*.host3.app[9].display-name = "type2_6"
*.host3.app[9].destPort = 1000
*.host3.app[10].typename = "UdpBasicApp"
*.host3.app[10].destAddresses = "host12"
*.host3.app[10].source.packetNameFormat = "%M-%m-%c"
*.host3.app[10].source.displayStringTextFormat = "sent %p pk (%l)"
*.host3.app[10].messageLength = 19B
*.host3.app[10].sendInterval = 1ms
*.host3.app[10].startTime = 34ms
*.host3.app[10].stopTime = 40ms
*.host3.app[10].display-name = "type2_6"
*.host3.app[10].destPort = 1000
*.host3.app[11].typename = "UdpBasicApp"
*.host3.app[11].destAddresses = "host12"
*.host3.app[11].source.packetNameFormat = "%M-%m-%c"
*.host3.app[11].source.displayStringTextFormat = "sent %p pk (%l)"
*.host3.app[11].messageLength = 19B
*.host3.app[11].sendInterval = 1ms
*.host3.app[11].startTime = 43ms
*.host3.app[11].stopTime = 48ms
*.host3.app[11].display-name = "type2_6"
*.host3.app[11].destPort = 1000
*.host3.app[12].typename = "UdpBasicApp"
*.host3.app[12].destAddresses = "host12"
*.host3.app[12].source.packetNameFormat = "%M-%m-%c"
*.host3.app[12].source.displayStringTextFormat = "sent %p pk (%l)"
*.host3.app[12].messageLength = 19B
*.host3.app[12].sendInterval = 1ms
*.host3.app[12].startTime = 51ms
*.host3.app[12].stopTime = 54ms
*.host3.app[12].display-name = "type2_6"
*.host3.app[12].destPort = 1000
*.host3.app[13].typename = "UdpBasicApp"
*.host3.app[13].destAddresses = "host12"
*.host3.app[13].source.packetNameFormat = "%M-%m-%c"
*.host3.app[13].source.displayStringTextFormat = "sent %p pk (%l)"
*.host3.app[13].messageLength = 19B
*.host3.app[13].sendInterval = 1ms
*.host3.app[13].startTime = 58ms
*.host3.app[13].stopTime = 73ms
*.host3.app[13].display-name = "type2_6"
*.host3.app[13].destPort = 1000
*.host3.app[14].typename = "UdpBasicApp"
*.host3.app[14].destAddresses = "host12"
*.host3.app[14].source.packetNameFormat = "%M-%m-%c"
*.host3.app[14].source.displayStringTextFormat = "sent %p pk (%l)"
*.host3.app[14].messageLength = 19B
*.host3.app[14].sendInterval = 1ms
*.host3.app[14].startTime = 75ms
*.host3.app[14].stopTime = 81ms
*.host3.app[14].display-name = "type2_6"
*.host3.app[14].destPort = 1000
*.host3.app[15].typename = "UdpBasicApp"
*.host3.app[15].destAddresses = "host12"
*.host3.app[15].source.packetNameFormat = "%M-%m-%c"
*.host3.app[15].source.displayStringTextFormat = "sent %p pk (%l)"
*.host3.app[15].messageLength = 19B
*.host3.app[15].sendInterval = 1ms
*.host3.app[15].startTime = 87ms
*.host3.app[15].stopTime = 95ms
*.host3.app[15].display-name = "type2_6"
*.host3.app[15].destPort = 1000
*.host4.numApps = 11
*.host4.app[0].typename = "UdpSinkApp"
*.host4.app[0].io.localPort = 1000
*.host4.app[1].typename = "UdpSinkApp"
*.host4.app[1].io.localPort = 1001
*.host4.app[2].typename = "UdpSinkApp"
*.host4.app[2].io.localPort = 1002
*.host4.app[3].typename = "UdpSourceApp"
*.host4.app[3].io.destAddress = "host10"
*.host4.app[3].source.packetNameFormat = "%M-%m-%c"
*.host4.app[3].source.displayStringTextFormat = "sent %p pk (%l)"
*.host4.app[3].source.packetLength = 13B
*.host4.app[3].source.productionInterval = 1ms
*.host4.app[3].display-name = "type1_14"
*.host4.app[3].io.destPort = 1001
*.host4.app[4].typename = "UdpSinkApp"
*.host4.app[4].io.localPort = 1003
*.host4.app[5].typename = "UdpBasicApp"
*.host4.app[5].destAddresses = "host9"
*.host4.app[5].source.packetNameFormat = "%M-%m-%c"
*.host4.app[5].source.displayStringTextFormat = "sent %p pk (%l)"
*.host4.app[5].messageLength = 13B
*.host4.app[5].sendInterval = 1ms
*.host4.app[5].startTime = 24ms
*.host4.app[5].stopTime = 36ms
*.host4.app[5].display-name = "type2_13"
*.host4.app[5].destPort = 1001
*.host4.app[6].typename = "UdpBasicApp"
*.host4.app[6].destAddresses = "host9"
*.host4.app[6].source.packetNameFormat = "%M-%m-%c"
*.host4.app[6].source.displayStringTextFormat = "sent %p pk (%l)"
*.host4.app[6].messageLength = 13B
*.host4.app[6].sendInterval = 1ms
*.host4.app[6].startTime = 39ms
*.host4.app[6].stopTime = 40ms
*.host4.app[6].display-name = "type2_13"
*.host4.app[6].destPort = 1001
*.host4.app[7].typename = "UdpBasicApp"
*.host4.app[7].destAddresses = "host9"
*.host4.app[7].source.packetNameFormat = "%M-%m-%c"
*.host4.app[7].source.displayStringTextFormat = "sent %p pk (%l)"
*.host4.app[7].messageLength = 13B
*.host4.app[7].sendInterval = 1ms
*.host4.app[7].startTime = 41ms
*.host4.app[7].stopTime = 58ms
*.host4.app[7].display-name = "type2_13"
*.host4.app[7].destPort = 1001
*.host4.app[8].typename = "UdpBasicApp"
*.host4.app[8].destAddresses = "host9"
*.host4.app[8].source.packetNameFormat = "%M-%m-%c"
*.host4.app[8].source.displayStringTextFormat = "sent %p pk (%l)"
*.host4.app[8].messageLength = 13B
*.host4.app[8].sendInterval = 1ms
*.host4.app[8].startTime = 70ms
*.host4.app[8].stopTime = 85ms
*.host4.app[8].display-name = "type2_13"
*.host4.app[8].destPort = 1001
*.host4.app[9].typename = "UdpBasicApp"
*.host4.app[9].destAddresses = "host9"
*.host4.app[9].source.packetNameFormat = "%M-%m-%c"
*.host4.app[9].source.displayStringTextFormat = "sent %p pk (%l)"
*.host4.app[9].messageLength = 13B
*.host4.app[9].sendInterval = 1ms
*.host4.app[9].startTime = 88ms
*.host4.app[9].stopTime = 100ms
*.host4.app[9].display-name = "type2_13"
*.host4.app[9].destPort = 1001
*.host4.app[10].typename = "UdpSinkApp"
*.host4.app[10].io.localPort = 1004
*.host5.numApps = 4
*.host5.app[0].typename = "UdpSourceApp"
*.host5.app[0].io.destAddress = "host10"
*.host5.app[0].source.packetNameFormat = "%M-%m-%c"
*.host5.app[0].source.displayStringTextFormat = "sent %p pk (%l)"
*.host5.app[0].source.packetLength = 13B
*.host5.app[0].source.productionInterval = 1ms
*.host5.app[0].display-name = "type1_8"
*.host5.app[0].io.destPort = 1000
*.host5.app[1].typename = "UdpSinkApp"
*.host5.app[1].io.localPort = 1000
*.host5.app[2].typename = "UdpSinkApp"
*.host5.app[2].io.localPort = 1001
*.host5.app[3].typename = "UdpSinkApp"
*.host5.app[3].io.localPort = 1002
*.host6.numApps = 1
*.host6.app[0].typename = "UdpSinkApp"
*.host6.app[0].io.localPort = 1000
*.host7.numApps = 19
*.host7.app[0].typename = "UdpSinkApp"
*.host7.app[0].io.localPort = 1000
*.host7.app[1].typename = "UdpSourceApp"
*.host7.app[1].io.destAddress = "host0"
*.host7.app[1].source.packetNameFormat = "%M-%m-%c"
*.host7.app[1].source.displayStringTextFormat = "sent %p pk (%l)"
*.host7.app[1].source.packetLength = 17B
*.host7.app[1].source.productionInterval = 1ms
*.host7.app[1].display-name = "type1_3"
*.host7.app[1].io.destPort = 1000
*.host7.app[2].typename = "UdpSourceApp"
*.host7.app[2].io.destAddress = "host8"
*.host7.app[2].source.packetNameFormat = "%M-%m-%c"
*.host7.app[2].source.displayStringTextFormat = "sent %p pk (%l)"
*.host7.app[2].source.packetLength = 18B
*.host7.app[2].source.productionInterval = 1ms
*.host7.app[2].display-name = "type1_6"
*.host7.app[2].io.destPort = 1000
*.host7.app[3].typename = "UdpSourceApp"
*.host7.app[3].io.destAddress = "host2"
*.host7.app[3].source.packetNameFormat = "%M-%m-%c"
*.host7.app[3].source.displayStringTextFormat = "sent %p pk (%l)"
*.host7.app[3].source.packetLength = 12B
*.host7.app[3].source.productionInterval = 1ms
*.host7.app[3].display-name = "type1_7"
*.host7.app[3].io.destPort = 1001
*.host7.app[4].typename = "UdpBasicApp"
*.host7.app[4].destAddresses = "host5"
*.host7.app[4].source.packetNameFormat = "%M-%m-%c"
*.host7.app[4].source.displayStringTextFormat = "sent %p pk (%l)"
*.host7.app[4].messageLength = 12B
*.host7.app[4].sendInterval = 1ms
*.host7.app[4].startTime = 2ms
*.host7.app[4].stopTime = 9ms
*.host7.app[4].display-name = "type2_0"
*.host7.app[4].destPort = 1000
*.host7.app[5].typename = "UdpBasicApp"
*.host7.app[5].destAddresses = "host5"
*.host7.app[5].source.packetNameFormat = "%M-%m-%c"
*.host7.app[5].source.displayStringTextFormat = "sent %p pk (%l)"
*.host7.app[5].messageLength = 12B
*.host7.app[5].sendInterval = 1ms
*.host7.app[5].startTime = 13ms
*.host7.app[5].stopTime = 22ms
*.host7.app[5].display-name = "type2_0"
*.host7.app[5].destPort = 1000
*.host7.app[6].typename = "UdpBasicApp"
*.host7.app[6].destAddresses = "host5"
*.host7.app[6].source.packetNameFormat = "%M-%m-%c"
*.host7.app[6].source.displayStringTextFormat = "sent %p pk (%l)"
*.host7.app[6].messageLength = 12B
*.host7.app[6].sendInterval = 1ms
*.host7.app[6].startTime = 29ms
*.host7.app[6].stopTime = 35ms
*.host7.app[6].display-name = "type2_0"
*.host7.app[6].destPort = 1000
*.host7.app[7].typename = "UdpBasicApp"
*.host7.app[7].destAddresses = "host5"
*.host7.app[7].source.packetNameFormat = "%M-%m-%c"
*.host7.app[7].source.displayStringTextFormat = "sent %p pk (%l)"
*.host7.app[7].messageLength = 12B
*.host7.app[7].sendInterval = 1ms
*.host7.app[7].startTime = 39ms
*.host7.app[7].stopTime = 44ms
*.host7.app[7].display-name = "type2_0"
*.host7.app[7].destPort = 1000
*.host7.app[8].typename = "UdpBasicApp"
*.host7.app[8].destAddresses = "host5"
*.host7.app[8].source.packetNameFormat = "%M-%m-%c"
*.host7.app[8].source.displayStringTextFormat = "sent %p pk (%l)"
*.host7.app[8].messageLength = 12B
*.host7.app[8].sendInterval = 1ms
*.host7.app[8].startTime = 47ms
*.host7.app[8].stopTime = 54ms
*.host7.app[8].display-name = "type2_0"
*.host7.app[8].destPort = 1000
*.host7.app[9].typename = "UdpBasicApp"
*.host7.app[9].destAddresses = "host5"
*.host7.app[9].source.packetNameFormat = "%M-%m-%c"
*.host7.app[9].source.displayStringTextFormat = "sent %p pk (%l)"
*.host7.app[9].messageLength = 12B
*.host7.app[9].sendInterval = 1ms
*.host7.app[9].startTime = 61ms
*.host7.app[9].stopTime = 72ms
*.host7.app[9].display-name = "type2_0"
*.host7.app[9].destPort = 1000
*.host7.app[10].typename = "UdpBasicApp"
*.host7.app[10].destAddresses = "host5"
*.host7.app[10].source.packetNameFormat = "%M-%m-%c"
*.host7.app[10].source.displayStringTextFormat = "sent %p pk (%l)"
*.host7.app[10].messageLength = 12B
*.host7.app[10].sendInterval = 1ms
*.host7.app[10].startTime = 75ms
*.host7.app[10].stopTime = 81ms
*.host7.app[10].display-name = "type2_0"
*.host7.app[10].destPort = 1000
*.host7.app[11].typename = "UdpBasicApp"
*.host7.app[11].destAddresses = "host4"
*.host7.app[11].source.packetNameFormat = "%M-%m-%c"
*.host7.app[11].source.displayStringTextFormat = "sent %p pk (%l)"
*.host7.app[11].messageLength = 22B
*.host7.app[11].sendInterval = 1ms
*.host7.app[11].startTime = 7ms
*.host7.app[11].stopTime = 15ms
*.host7.app[11].display-name = "type2_3"
*.host7.app[11].destPort = 1003
*.host7.app[12].typename = "UdpBasicApp"
*.host7.app[12].destAddresses = "host4"
*.host7.app[12].source.packetNameFormat = "%M-%m-%c"
*.host7.app[12].source.displayStringTextFormat = "sent %p pk (%l)"
*.host7.app[12].messageLength = 22B
*.host7.app[12].sendInterval = 1ms
*.host7.app[12].startTime = 24ms
*.host7.app[12].stopTime = 31ms
*.host7.app[12].display-name = "type2_3"
*.host7.app[12].destPort = 1003
*.host7.app[13].typename = "UdpBasicApp"
*.host7.app[13].destAddresses = "host4"
*.host7.app[13].source.packetNameFormat = "%M-%m-%c"
*.host7.app[13].source.displayStringTextFormat = "sent %p pk (%l)"
*.host7.app[13].messageLength = 22B
*.host7.app[13].sendInterval = 1ms
*.host7.app[13].startTime = 36ms
*.host7.app[13].stopTime = 44ms
*.host7.app[13].display-name = "type2_3"
*.host7.app[13].destPort = 1003
*.host7.app[14].typename = "UdpBasicApp"
*.host7.app[14].destAddresses = "host4"
*.host7.app[14].source.packetNameFormat = "%M-%m-%c"
*.host7.app[14].source.displayStringTextFormat = "sent %p pk (%l)"
*.host7.app[14].messageLength = 22B
*.host7.app[14].sendInterval = 1ms
*.host7.app[14].startTime = 51ms
*.host7.app[14].stopTime = 60ms
*.host7.app[14].display-name = "type2_3"
*.host7.app[14].destPort = 1003
*.host7.app[15].typename = "UdpBasicApp"
*.host7.app[15].destAddresses = "host4"
*.host7.app[15].source.packetNameFormat = "%M-%m-%c"
*.host7.app[15].source.displayStringTextFormat = "sent %p pk (%l)"