[General]
network = TSN_multipath
sim-time-limit = 100ms
*.macForwardingTableConfigurator.typename = ""
*.*.hasStreamRedundancy = true
*.*.bridging.streamRelay.typename = "StreamRelayLayer"
*.*.bridging.streamCoder.typename = "StreamCoderLayer"
*.streamRedundancyConfigurator.typename = "StreamRedundancyConfigurator"
*.host0.eth[0].bitrate = 1000Mbps
*.switch0.eth[0].bitrate = 1000Mbps
*.switch0.eth[1].bitrate = 2400Mbps
*.switch0.eth[2].bitrate = 1900Mbps
*.switch0.eth[3].bitrate = 1800Mbps
*.switch0.eth[4].bitrate = 1500Mbps
*.switch0.eth[5].bitrate = 1800Mbps
*.switch0.eth[6].bitrate = 1300Mbps
*.switch0.eth[7].bitrate = 1700Mbps
*.switch0.eth[8].bitrate = 2100Mbps
*.switch0.eth[9].bitrate = 1800Mbps
*.switch0.eth[10].bitrate = 2300Mbps
*.switch0.eth[11].bitrate = 1400Mbps
*.switch0.eth[12].bitrate = 1800Mbps
*.switch0.eth[13].bitrate = 2200Mbps
*.switch0.eth[14].bitrate = 2100Mbps
*.switch0.eth[15].bitrate = 2300Mbps
*.host1.eth[0].bitrate = 1000Mbps
*.switch1.eth[0].bitrate = 1000Mbps
*.switch1.eth[1].bitrate = 2400Mbps
*.switch1.eth[2].bitrate = 2300Mbps
*.switch1.eth[3].bitrate = 2300Mbps
*.switch1.eth[4].bitrate = 2400Mbps
*.switch1.eth[5].bitrate = 1800Mbps
*.switch1.eth[6].bitrate = 2300Mbps
*.switch1.eth[7].bitrate = 2000Mbps
*.switch1.eth[8].bitrate = 2400Mbps
*.switch1.eth[9].bitrate = 2300Mbps
*.switch1.eth[10].bitrate = 1500Mbps
*.switch1.eth[11].bitrate = 1800Mbps
*.switch1.eth[12].bitrate = 1200Mbps
*.switch1.eth[13].bitrate = 1600Mbps
*.switch1.eth[14].bitrate = 1600Mbps
*.switch1.eth[15].bitrate = 2100Mbps
*.switch1.eth[16].bitrate = 2100Mbps
*.switch1.eth[17].bitrate = 1300Mbps
*.host2.eth[0].bitrate = 1000Mbps
*.switch2.eth[0].bitrate = 1000Mbps
*.switch2.eth[1].bitrate = 1900Mbps
*.switch2.eth[2].bitrate = 1800Mbps
*.switch2.eth[3].bitrate = 1800Mbps
*.switch2.eth[4].bitrate = 2400Mbps
*.switch2.eth[5].bitrate = 2200Mbps
*.switch2.eth[6].bitrate = 2000Mbps
*.switch2.eth[7].bitrate = 1700Mbps
*.switch2.eth[8].bitrate = 1900Mbps
*.switch2.eth[9].bitrate = 2400Mbps
*.switch2.eth[10].bitrate = 2400Mbps
*.switch2.eth[11].bitrate = 2200Mbps
*.switch2.eth[12].bitrate = 1200Mbps
*.switch2.eth[13].bitrate = 2000Mbps
*.switch2.eth[14].bitrate = 2400Mbps
*.switch2.eth[15].bitrate = 1900Mbps
*.switch2.eth[16].bitrate = 1800Mbps
*.switch2.eth[17].bitrate = 1400Mbps
*.host3.eth[0].bitrate = 1000Mbps
*.switch3.eth[0].bitrate = 1000Mbps
*.switch3.eth[1].bitrate = 2400Mbps
*.switch3.eth[2].bitrate = 1200Mbps
*.switch3.eth[3].bitrate = 1200Mbps
*.switch3.eth[4].bitrate = 2400Mbps
*.switch3.eth[5].bitrate = 1300Mbps
*.switch3.eth[6].bitrate = 1400Mbps
*.switch3.eth[7].bitrate = 1900Mbps
*.switch3.eth[8].bitrate = 1700Mbps
*.host4.eth[0].bitrate = 1000Mbps
*.switch4.eth[0].bitrate = 1000Mbps
*.switch4.eth[1].bitrate = 2300Mbps
*.switch4.eth[2].bitrate = 2200Mbps
*.switch4.eth[3].bitrate = 2300Mbps
*.switch4.eth[4].bitrate = 1600Mbps
*.switch4.eth[5].bitrate = 2000Mbps
*.switch4.eth[6].bitrate = 1600Mbps
*.switch4.eth[7].bitrate = 1900Mbps
*.switch4.eth[8].bitrate = 2300Mbps
*.switch4.eth[9].bitrate = 2000Mbps
*.switch4.eth[10].bitrate = 1300Mbps
*.switch4.eth[11].bitrate = 1700Mbps
*.switch4.eth[12].bitrate = 1200Mbps
*.switch4.eth[13].bitrate = 2300Mbps
*.switch4.eth[14].bitrate = 1900Mbps
*.switch4.eth[15].bitrate = 1500Mbps
*.host5.eth[0].bitrate = 1000Mbps
*.switch5.eth[0].bitrate = 1000Mbps
*.switch5.eth[1].bitrate = 1800Mbps
*.switch5.eth[2].bitrate = 2300Mbps
*.switch5.eth[3].bitrate = 2000Mbps
*.switch5.eth[4].bitrate = 1600Mbps
*.switch5.eth[5].bitrate = 2400Mbps
*.switch5.eth[6].bitrate = 1200Mbps
*.switch5.eth[7].bitrate = 1900Mbps
*.switch5.eth[8].bitrate = 2300Mbps
*.switch5.eth[9].bitrate = 1800Mbps
*.switch5.eth[10].bitrate = 1400Mbps
*.host6.eth[0].bitrate = 1000Mbps
*.switch6.eth[0].bitrate = 1000Mbps
*.switch6.eth[1].bitrate = 1500Mbps
*.switch6.eth[2].bitrate = 2400Mbps
*.switch6.eth[3].bitrate = 1700Mbps
*.switch6.eth[4].bitrate = 1600Mbps
*.switch6.eth[5].bitrate = 1200Mbps
*.switch6.eth[6].bitrate = 1400Mbps
*.switch6.eth[7].bitrate = 2100Mbps
*.switch6.eth[8].bitrate = 2400Mbps
*.switch6.eth[9].bitrate = 1200Mbps
*.switch6.eth[10].bitrate = 2300Mbps
*.switch6.eth[11].bitrate = 1500Mbps
*.switch6.eth[12].bitrate = 2000Mbps
*.switch6.eth[13].bitrate = 1700Mbps
*.switch6.eth[14].bitrate = 1900Mbps
*.switch6.eth[15].bitrate = 2300Mbps
*.switch6.eth[16].bitrate = 1900Mbps
*.switch6.eth[17].bitrate = 1800Mbps
*.switch6.eth[18].bitrate = 2300Mbps
*.switch6.eth[19].bitrate = 2200Mbps
*.switch6.eth[20].bitrate = 1600Mbps
*.host7.eth[0].bitrate = 1000Mbps
*.switch7.eth[0].bitrate = 1000Mbps
*.switch7.eth[1].bitrate = 1900Mbps
*.switch7.eth[2].bitrate = 1900Mbps
*.switch7.eth[3].bitrate = 1900Mbps
*.switch7.eth[4].bitrate = 1900Mbps
*.switch7.eth[5].bitrate = 1300Mbps
*.switch7.eth[6].bitrate = 2300Mbps
*.switch7.eth[7].bitrate = 2300Mbps
*.switch7.eth[8].bitrate = 1300Mbps
*.switch7.eth[9].bitrate = 2300Mbps
*.switch7.eth[10].bitrate = 2100Mbps
*.switch7.eth[11].bitrate = 2300Mbps
*.switch7.eth[12].bitrate = 1500Mbps
*.switch7.eth[13].bitrate = 1400Mbps
*.switch7.eth[14].bitrate = 1700Mbps
*.switch7.eth[15].bitrate = 1900Mbps
*.switch7.eth[16].bitrate = 1800Mbps
*.host8.eth[0].bitrate = 1000Mbps
*.switch8.eth[0].bitrate = 1000Mbps
*.switch8.eth[1].bitrate = 1800Mbps
*.switch8.eth[2].bitrate = 2400Mbps
*.switch8.eth[3].bitrate = 1500Mbps
*.switch8.eth[4].bitrate = 1300Mbps
*.switch8.eth[5].bitrate = 1400Mbps
*.switch8.eth[6].bitrate = 1900Mbps
*.switch8.eth[7].bitrate = 1900Mbps
*.switch8.eth[8].bitrate = 2100Mbps
*.switch8.eth[9].bitrate = 2300Mbps
*.switch8.eth[10].bitrate = 2000Mbps
*.switch8.eth[11].bitrate = 1400Mbps
*.switch8.eth[12].bitrate = 1700Mbps
*.switch8.eth[13].bitrate = 1700Mbps
*.switch8.eth[14].bitrate = 1200Mbps
*.host9.eth[0].bitrate = 1000Mbps
*.switch9.eth[0].bitrate = 1000Mbps
*.switch9.eth[1].bitrate = 1800Mbps
*.switch9.eth[2].bitrate = 2300Mbps
*.switch9.eth[3].bitrate = 2300Mbps
*.switch9.eth[4].bitrate = 2100Mbps
*.switch9.eth[5].bitrate = 1800Mbps
*.switch9.eth[6].bitrate = 1800Mbps
*.switch9.eth[7].bitrate = 1900Mbps
*.switch9.eth[8].bitrate = 1800Mbps
*.switch9.eth[9].bitrate = 1600Mbps
*.switch9.eth[10].bitrate = 2100Mbps
*.switch9.eth[11].bitrate = 1600Mbps
*.switch9.eth[12].bitrate = 2000Mbps
*.switch9.eth[13].bitrate = 1500Mbps
*.host10.eth[0].bitrate = 1000Mbps
*.switch10.eth[0].bitrate = 1000Mbps
*.switch10.eth[1].bitrate = 2000Mbps
*.switch10.eth[2].bitrate = 2400Mbps
*.switch10.eth[3].bitrate = 2300Mbps
*.switch10.eth[4].bitrate = 2000Mbps
*.switch10.eth[5].bitrate = 2100Mbps
*.switch10.eth[6].bitrate = 2300Mbps
*.switch10.eth[7].bitrate = 2200Mbps
*.switch10.eth[8].bitrate = 2100Mbps
*.switch10.eth[9].bitrate = 1700Mbps
*.switch10.eth[10].bitrate = 1400Mbps
*.switch10.eth[11].bitrate = 2300Mbps
*.host11.eth[0].bitrate = 1000Mbps
*.switch11.eth[0].bitrate = 1000Mbps
*.switch11.eth[1].bitrate = 1300Mbps
*.switch11.eth[2].bitrate = 2200Mbps
*.switch11.eth[3].bitrate = 2000Mbps
*.switch11.eth[4].bitrate = 2300Mbps
*.switch11.eth[5].bitrate = 2000Mbps
*.switch11.eth[6].bitrate = 1600Mbps
*.switch11.eth[7].bitrate = 1700Mbps
*.switch11.eth[8].bitrate = 1800Mbps
*.host12.eth[0].bitrate = 1000Mbps
*.switch12.eth[0].bitrate = 1000Mbps
*.switch12.eth[1].bitrate = 1700Mbps
*.switch12.eth[2].bitrate = 2400Mbps
*.switch12.eth[3].bitrate = 1200Mbps
*.switch12.eth[4].bitrate = 1200Mbps
*.switch12.eth[5].bitrate = 1300Mbps
*.switch12.eth[6].bitrate = 1700Mbps
*.switch12.eth[7].bitrate = 1500Mbps
*.switch12.eth[8].bitrate = 1400Mbps
*.switch12.eth[9].bitrate = 2100Mbps
*.switch12.eth[10].bitrate = 1400Mbps
*.switch12.eth[11].bitrate = 2300Mbps
*.host13.eth[0].bitrate = 1000Mbps
*.switch13.eth[0].bitrate = 1000Mbps
*.switch13.eth[1].bitrate = 2300Mbps
*.switch13.eth[2].bitrate = 1700Mbps
*.switch13.eth[3].bitrate = 1400Mbps
*.switch13.eth[4].bitrate = 1600Mbps
*.switch13.eth[5].bitrate = 2100Mbps
*.switch13.eth[6].bitrate = 1300Mbps
*.switch13.eth[7].bitrate = 1400Mbps
*.switch13.eth[8].bitrate = 1800Mbps
*.switch13.eth[9].bitrate = 2200Mbps
*.switch13.eth[10].bitrate = 1900Mbps
*.switch13.eth[11].bitrate = 1600Mbps
*.switch13.eth[12].bitrate = 1400Mbps
*.host14.eth[0].bitrate = 1000Mbps
*.switch14.eth[0].bitrate = 1000Mbps
*.switch14.eth[1].bitrate = 2100Mbps
*.switch14.eth[2].bitrate = 1500Mbps
*.switch14.eth[3].bitrate = 1900Mbps
*.switch14.eth[4].bitrate = 1700Mbps
*.switch14.eth[5].bitrate = 1700Mbps
*.switch14.eth[6].bitrate = 2000Mbps
*.switch14.eth[7].bitrate = 1600Mbps
*.switch14.eth[8].bitrate = 2300Mbps
*.switch14.eth[9].bitrate = 1500Mbps
*.switch14.eth[10].bitrate = 1400Mbps
*.switch14.eth[11].bitrate = 1600Mbps
*.switch14.eth[12].bitrate = 1800Mbps
*.switch14.eth[13].bitrate = 1200Mbps
*.switch14.eth[14].bitrate = 1500Mbps
*.switch14.eth[15].bitrate = 2300Mbps
*.switch14.eth[16].bitrate = 1800Mbps
*.switch14.eth[17].bitrate = 1400Mbps
*.host8.numApps = 1
*.host8.app[0].typename = "UdpSourceApp"
*.host8.app[0].io.destAddress = "host5"
*.host8.app[0].source.packetNameFormat = "%M-%m-%c"
*.host8.app[0].source.displayStringTextFormat = "sent %p pk (%l)"
*.host8.app[0].source.packetLength = 17B
*.host8.app[0].source.productionInterval = 1ms
*.host8.app[0].display-name = "type2_13"
*.host8.app[0].io.destPort = 1000
*.host5.numApps = 1
*.host5.app[0].typename = "UdpSinkApp"
*.host5.app[0].io.localPort = 1000
*.streamRedundancyConfigurator.configuration = [
	{
		name: "shortest_path",
		packetFilter: "*-type2_13-*",
		source: "host8",
		destination: "host5",
		trees: [[["host8", "switch8", "switch6", "switch5", "host5"]]]
	}]
	

