[General]
network = TSN_multipath
sim-time-limit = 100ms
*.macForwardingTableConfigurator.typename = ""
*.*.hasStreamRedundancy = true
*.*.bridging.streamRelay.typename = "StreamRelayLayer"
*.*.bridging.streamCoder.typename = "StreamCoderLayer"
*.streamRedundancyConfigurator.typename = "StreamRedundancyConfigurator"
*.host0.eth[0].bitrate = 1000Mbps
*.switch0.eth[0].bitrate = 1000Mbps
*.switch0.eth[1].bitrate = 2400Mbps
*.switch0.eth[2].bitrate = 1900Mbps
*.switch0.eth[3].bitrate = 1800Mbps
*.switch0.eth[4].bitrate = 1500Mbps
*.switch0.eth[5].bitrate = 1800Mbps
*.switch0.eth[6].bitrate = 1300Mbps
*.switch0.eth[7].bitrate = 1700Mbps
*.switch0.eth[8].bitrate = 2100Mbps
*.switch0.eth[9].bitrate = 1800Mbps
*.switch0.eth[10].bitrate = 2300Mbps
*.switch0.eth[11].bitrate = 1400Mbps
*.switch0.eth[12].bitrate = 1800Mbps
*.switch0.eth[13].bitrate = 2200Mbps
*.switch0.eth[14].bitrate = 2100Mbps
*.switch0.eth[15].bitrate = 2300Mbps
*.host1.eth[0].bitrate = 1000Mbps
*.switch1.eth[0].bitrate = 1000Mbps
*.switch1.eth[1].bitrate = 2400Mbps
*.switch1.eth[2].bitrate = 2300Mbps
*.switch1.eth[3].bitrate = 2300Mbps
*.switch1.eth[4].bitrate = 2400Mbps
*.switch1.eth[5].bitrate = 1800Mbps
*.switch1.eth[6].bitrate = 2300Mbps
*.switch1.eth[7].bitrate = 2000Mbps
*.switch1.eth[8].bitrate = 2400Mbps
*.switch1.eth[9].bitrate = 2300Mbps
*.switch1.eth[10].bitrate = 1500Mbps
*.switch1.eth[11].bitrate = 1800Mbps
*.switch1.eth[12].bitrate = 1200Mbps
*.switch1.eth[13].bitrate = 1600Mbps
*.switch1.eth[14].bitrate = 1600Mbps
*.switch1.eth[15].bitrate = 2100Mbps
*.switch1.eth[16].bitrate = 2100Mbps
*.switch1.eth[17].bitrate = 1300Mbps
*.host2.eth[0].bitrate = 1000Mbps
*.switch2.eth[0].bitrate = 1000Mbps
*.switch2.eth[1].bitrate = 1900Mbps
*.switch2.eth[2].bitrate = 1800Mbps
*.switch2.eth[3].bitrate = 1800Mbps
*.switch2.eth[4].bitrate = 2400Mbps
*.switch2.eth[5].bitrate = 2200Mbps
*.switch2.eth[6].bitrate = 2000Mbps
*.switch2.eth[7].bitrate = 1700Mbps
*.switch2.eth[8].bitrate = 1900Mbps
*.switch2.eth[9].bitrate = 2400Mbps
*.switch2.eth[10].bitrate = 2400Mbps
*.switch2.eth[11].bitrate = 2200Mbps
*.switch2.eth[12].bitrate = 1200Mbps
*.switch2.eth[13].bitrate = 2000Mbps
*.switch2.eth[14].bitrate = 2400Mbps
*.switch2.eth[15].bitrate = 1900Mbps
*.switch2.eth[16].bitrate = 1800Mbps
*.switch2.eth[17].bitrate = 1400Mbps
*.host3.eth[0].bitrate = 1000Mbps
*.switch3.eth[0].bitrate = 1000Mbps
*.switch3.eth[1].bitrate = 2400Mbps
*.switch3.eth[2].bitrate = 1200Mbps
*.switch3.eth[3].bitrate = 1200Mbps
*.switch3.eth[4].bitrate = 2400Mbps
*.switch3.eth[5].bitrate = 1300Mbps
*.switch3.eth[6].bitrate = 1400Mbps
*.switch3.eth[7].bitrate = 1900Mbps
*.switch3.eth[8].bitrate = 1700Mbps
*.host4.eth[0].bitrate = 1000Mbps
*.switch4.eth[0].bitrate = 1000Mbps
*.switch4.eth[1].bitrate = 2300Mbps
*.switch4.eth[2].bitrate = 2200Mbps
*.switch4.eth[3].bitrate = 2300Mbps
*.switch4.eth[4].bitrate = 1600Mbps
*.switch4.eth[5].bitrate = 2000Mbps
*.switch4.eth[6].bitrate = 1600Mbps
*.switch4.eth[7].bitrate = 1900Mbps
*.switch4.eth[8].bitrate = 2300Mbps
*.switch4.eth[9].bitrate = 2000Mbps
*.switch4.eth[10].bitrate = 1300Mbps
*.switch4.eth[11].bitrate = 1700Mbps
*.switch4.eth[12].bitrate = 1200Mbps
*.switch4.eth[13].bitrate = 2300Mbps
*.switch4.eth[14].bitrate = 1900Mbps
*.switch4.eth[15].bitrate = 1500Mbps
*.host5.eth[0].bitrate = 1000Mbps
*.switch5.eth[0].bitrate = 1000Mbps
*.switch5.eth[1].bitrate = 1800Mbps
*.switch5.eth[2].bitrate = 2300Mbps
*.switch5.eth[3].bitrate = 2000Mbps
*.switch5.eth[4].bitrate = 1600Mbps
*.switch5.eth[5].bitrate = 2400Mbps
*.switch5.eth[6].bitrate = 1200Mbps
*.switch5.eth[7].bitrate = 1900Mbps
*.switch5.eth[8].bitrate = 2300Mbps
*.switch5.eth[9].bitrate = 1800Mbps
*.switch5.eth[10].bitrate = 1400Mbps
*.host6.eth[0].bitrate = 1000Mbps
*.switch6.eth[0].bitrate = 1000Mbps
*.switch6.eth[1].bitrate = 1500Mbps
*.switch6.eth[2].bitrate = 2400Mbps
*.switch6.eth[3].bitrate = 1700Mbps
*.switch6.eth[4].bitrate = 1600Mbps
*.switch6.eth[5].bitrate = 1200Mbps
*.switch6.eth[6].bitrate = 1400Mbps
*.switch6.eth[7].bitrate = 2100Mbps
*.switch6.eth[8].bitrate = 2400Mbps
*.switch6.eth[9].bitrate = 1200Mbps
*.switch6.eth[10].bitrate = 2300Mbps
*.switch6.eth[11].bitrate = 1500Mbps
*.switch6.eth[12].bitrate = 2000Mbps
*.switch6.eth[13].bitrate = 1700Mbps
*.switch6.eth[14].bitrate = 1900Mbps
*.switch6.eth[15].bitrate = 2300Mbps
*.switch6.eth[16].bitrate = 1900Mbps
*.switch6.eth[17].bitrate = 1800Mbps
*.switch6.eth[18].bitrate = 2300Mbps
*.switch6.eth[19].bitrate = 2200Mbps
*.switch6.eth[20].bitrate = 1600Mbps
*.host7.eth[0].bitrate = 1000Mbps
*.switch7.eth[0].bitrate = 1000Mbps
*.switch7.eth[1].bitrate = 1900Mbps
*.switch7.eth[2].bitrate = 1900Mbps
*.switch7.eth[3].bitrate = 1900Mbps
*.switch7.eth[4].bitrate = 1900Mbps
*.switch7.eth[5].bitrate = 1300Mbps
*.switch7.eth[6].bitrate = 2300Mbps
*.switch7.eth[7].bitrate = 2300Mbps
*.switch7.eth[8].bitrate = 1300Mbps
*.switch7.eth[9].bitrate = 2300Mbps
*.switch7.eth[10].bitrate = 2100Mbps
*.switch7.eth[11].bitrate = 2300Mbps
*.switch7.eth[12].bitrate = 1500Mbps
*.switch7.eth[13].bitrate = 1400Mbps
*.switch7.eth[14].bitrate = 1700Mbps
*.switch7.eth[15].bitrate = 1900Mbps
*.switch7.eth[16].bitrate = 1800Mbps
*.host8.eth[0].bitrate = 1000Mbps
*.switch8.eth[0].bitrate = 1000Mbps
*.switch8.eth[1].bitrate = 1800Mbps
*.switch8.eth[2].bitrate = 2400Mbps
*.switch8.eth[3].bitrate = 1500Mbps
*.switch8.eth[4].bitrate = 1300Mbps
*.switch8.eth[5].bitrate = 1400Mbps
*.switch8.eth[6].bitrate = 1900Mbps
*.switch8.eth[7].bitrate = 1900Mbps
*.switch8.eth[8].bitrate = 2100Mbps
*.switch8.eth[9].bitrate = 2300Mbps
*.switch8.eth[10].bitrate = 2000Mbps
*.switch8.eth[11].bitrate = 1400Mbps
*.switch8.eth[12].bitrate = 1700Mbps
*.switch8.eth[13].bitrate = 1700Mbps
*.switch8.eth[14].bitrate = 1200Mbps
*.host9.eth[0].bitrate = 1000Mbps
*.switch9.eth[0].bitrate = 1000Mbps
*.switch9.eth[1].bitrate = 1800Mbps
*.switch9.eth[2].bitrate = 2300Mbps
*.switch9.eth[3].bitrate = 2300Mbps
*.switch9.eth[4].bitrate = 2100Mbps
*.switch9.eth[5].bitrate = 1800Mbps
*.switch9.eth[6].bitrate = 1800Mbps
*.switch9.eth[7].bitrate = 1900Mbps
*.switch9.eth[8].bitrate = 1800Mbps
*.switch9.eth[9].bitrate = 1600Mbps
*.switch9.eth[10].bitrate = 2100Mbps
*.switch9.eth[11].bitrate = 1600Mbps
*.switch9.eth[12].bitrate = 2000Mbps
*.switch9.eth[13].bitrate = 1500Mbps
*.host10.eth[0].bitrate = 1000Mbps
*.switch10.eth[0].bitrate = 1000Mbps
*.switch10.eth[1].bitrate = 2000Mbps
*.switch10.eth[2].bitrate = 2400Mbps
*.switch10.eth[3].bitrate = 2300Mbps
*.switch10.eth[4].bitrate = 2000Mbps
*.switch10.eth[5].bitrate = 2100Mbps
*.switch10.eth[6].bitrate = 2300Mbps
*.switch10.eth[7].bitrate = 2200Mbps
*.switch10.eth[8].bitrate = 2100Mbps
*.switch10.eth[9].bitrate = 1700Mbps
*.switch10.eth[10].bitrate = 1400Mbps
*.switch10.eth[11].bitrate = 2300Mbps
*.host11.eth[0].bitrate = 1000Mbps
*.switch11.eth[0].bitrate = 1000Mbps
*.switch11.eth[1].bitrate = 1300Mbps
*.switch11.eth[2].bitrate = 2200Mbps
*.switch11.eth[3].bitrate = 2000Mbps
*.switch11.eth[4].bitrate = 2300Mbps
*.switch11.eth[5].bitrate = 2000Mbps
*.switch11.eth[6].bitrate = 1600Mbps
*.switch11.eth[7].bitrate = 1700Mbps
*.switch11.eth[8].bitrate = 1800Mbps
*.host12.eth[0].bitrate = 1000Mbps
*.switch12.eth[0].bitrate = 1000Mbps
*.switch12.eth[1].bitrate = 1700Mbps
*.switch12.eth[2].bitrate = 2400Mbps
*.switch12.eth[3].bitrate = 1200Mbps
*.switch12.eth[4].bitrate = 1200Mbps
*.switch12.eth[5].bitrate = 1300Mbps
*.switch12.eth[6].bitrate = 1700Mbps
*.switch12.eth[7].bitrate = 1500Mbps
*.switch12.eth[8].bitrate = 1400Mbps
*.switch12.eth[9].bitrate = 2100Mbps
*.switch12.eth[10].bitrate = 1400Mbps
*.switch12.eth[11].bitrate = 2300Mbps
*.host13.eth[0].bitrate = 1000Mbps
*.switch13.eth[0].bitrate = 1000Mbps
*.switch13.eth[1].bitrate = 2300Mbps
*.switch13.eth[2].bitrate = 1700Mbps
*.switch13.eth[3].bitrate = 1400Mbps
*.switch13.eth[4].bitrate = 1600Mbps
*.switch13.eth[5].bitrate = 2100Mbps
*.switch13.eth[6].bitrate = 1300Mbps
*.switch13.eth[7].bitrate = 1400Mbps
*.switch13.eth[8].bitrate = 1800Mbps
*.switch13.eth[9].bitrate = 2200Mbps
*.switch13.eth[10].bitrate = 1900Mbps
*.switch13.eth[11].bitrate = 1600Mbps
*.switch13.eth[12].bitrate = 1400Mbps
*.host14.eth[0].bitrate = 1000Mbps
*.switch14.eth[0].bitrate = 1000Mbps
*.switch14.eth[1].bitrate = 2100Mbps
*.switch14.eth[2].bitrate = 1500Mbps
*.switch14.eth[3].bitrate = 1900Mbps
*.switch14.eth[4].bitrate = 1700Mbps
*.switch14.eth[5].bitrate = 1700Mbps
*.switch14.eth[6].bitrate = 2000Mbps
*.switch14.eth[7].bitrate = 1600Mbps
*.switch14.eth[8].bitrate = 2300Mbps
*.switch14.eth[9].bitrate = 1500Mbps
*.switch14.eth[10].bitrate = 1400Mbps
*.switch14.eth[11].bitrate = 1600Mbps
*.switch14.eth[12].bitrate = 1800Mbps
*.switch14.eth[13].bitrate = 1200Mbps
*.switch14.eth[14].bitrate = 1500Mbps
*.switch14.eth[15].bitrate = 2300Mbps
*.switch14.eth[16].bitrate = 1800Mbps
*.switch14.eth[17].bitrate = 1400Mbps
*.host0.numApps = 5
*.host0.app[0].typename = "UdpSinkApp"
*.host0.app[0].io.localPort = 1000
*.host0.app[1].typename = "UdpSinkApp"
*.host0.app[1].io.localPort = 1001
*.host0.app[2].typename = "UdpBasicApp"
*.host0.app[2].destAddresses = "host2"
*.host0.app[2].source.packetNameFormat = "%M-%m-%c"
*.host0.app[2].source.displayStringTextFormat = "sent %p pk (%l)"
*.host0.app[2].messageLength = 18B
*.host0.app[2].sendInterval = 1ms
*.host0.app[2].startTime = 7ms
*.host0.app[2].stopTime = 34ms
*.host0.app[2].display-name = "type2_7"
*.host0.app[2].destPort = 1002
*.host0.app[3].typename = "UdpBasicApp"
*.host0.app[3].destAddresses = "host2"
*.host0.app[3].source.packetNameFormat = "%M-%m-%c"
*.host0.app[3].source.displayStringTextFormat = "sent %p pk (%l)"
*.host0.app[3].messageLength = 18B
*.host0.app[3].sendInterval = 1ms
*.host0.app[3].startTime = 36ms
*.host0.app[3].stopTime = 44ms
*.host0.app[3].display-name = "type2_7"
*.host0.app[3].destPort = 1002
*.host0.app[4].typename = "UdpBasicApp"
*.host0.app[4].destAddresses = "host2"
*.host0.app[4].source.packetNameFormat = "%M-%m-%c"
*.host0.app[4].source.displayStringTextFormat = "sent %p pk (%l)"
*.host0.app[4].messageLength = 18B
*.host0.app[4].sendInterval = 1ms
*.host0.app[4].startTime = 58ms
*.host0.app[4].stopTime = 80ms
*.host0.app[4].display-name = "type2_7"
*.host0.app[4].destPort = 1002
*.host1.numApps = 16
*.host1.app[0].typename = "UdpSourceApp"
*.host1.app[0].io.destAddress = "host2"
*.host1.app[0].source.packetNameFormat = "%M-%m-%c"
*.host1.app[0].source.displayStringTextFormat = "sent %p pk (%l)"
*.host1.app[0].source.packetLength = 14B
*.host1.app[0].source.productionInterval = 1ms
*.host1.app[0].display-name = "type1_5"
*.host1.app[0].io.destPort = 1000
*.host1.app[1].typename = "UdpBasicApp"
*.host1.app[1].destAddresses = "host13"
*.host1.app[1].source.packetNameFormat = "%M-%m-%c"
*.host1.app[1].source.displayStringTextFormat = "sent %p pk (%l)"
*.host1.app[1].messageLength = 12B
*.host1.app[1].sendInterval = 1ms
*.host1.app[1].startTime = 4ms
*.host1.app[1].stopTime = 7ms
*.host1.app[1].display-name = "type2_0"
*.host1.app[1].destPort = 1000
*.host1.app[2].typename = "UdpBasicApp"
*.host1.app[2].destAddresses = "host13"
*.host1.app[2].source.packetNameFormat = "%M-%m-%c"
*.host1.app[2].source.displayStringTextFormat = "sent %p pk (%l)"
*.host1.app[2].messageLength = 12B
*.host1.app[2].sendInterval = 1ms
*.host1.app[2].startTime = 10ms
*.host1.app[2].stopTime = 13ms
*.host1.app[2].display-name = "type2_0"
*.host1.app[2].destPort = 1000
*.host1.app[3].typename = "UdpBasicApp"
*.host1.app[3].destAddresses = "host13"
*.host1.app[3].source.packetNameFormat = "%M-%m-%c"
*.host1.app[3].source.displayStringTextFormat = "sent %p pk (%l)"
*.host1.app[3].messageLength = 12B
*.host1.app[3].sendInterval = 1ms
*.host1.app[3].startTime = 42ms
*.host1.app[3].stopTime = 68ms
*.host1.app[3].display-name = "type2_0"
*.host1.app[3].destPort = 1000
*.host1.app[4].typename = "UdpBasicApp"
*.host1.app[4].destAddresses = "host13"
*.host1.app[4].source.packetNameFormat = "%M-%m-%c"
*.host1.app[4].source.displayStringTextFormat = "sent %p pk (%l)"
*.host1.app[4].messageLength = 12B
*.host1.app[4].sendInterval = 1ms
*.host1.app[4].startTime = 69ms
*.host1.app[4].stopTime = 82ms
*.host1.app[4].display-name = "type2_0"
*.host1.app[4].destPort = 1000
*.host1.app[5].typename = "UdpBasicApp"
*.host1.app[5].destAddresses = "host13"
*.host1.app[5].source.packetNameFormat = "%M-%m-%c"
*.host1.app[5].source.displayStringTextFormat = "sent %p pk (%l)"
*.host1.app[5].messageLength = 12B
*.host1.app[5].sendInterval = 1ms
*.host1.app[5].startTime = 89ms
*.host1.app[5].stopTime = 99ms
*.host1.app[5].display-name = "type2_0"
*.host1.app[5].destPort = 1000
*.host1.app[6].typename = "UdpBasicApp"
*.host1.app[6].destAddresses = "host0"
*.host1.app[6].source.packetNameFormat = "%M-%m-%c"
*.host1.app[6].source.displayStringTextFormat = "sent %p pk (%l)"
*.host1.app[6].messageLength = 12B
*.host1.app[6].sendInterval = 1ms
*.host1.app[6].startTime = 7ms
*.host1.app[6].stopTime = 8ms
*.host1.app[6].display-name = "type2_6"
*.host1.app[6].destPort = 1001
*.host1.app[7].typename = "UdpBasicApp"
*.host1.app[7].destAddresses = "host0"
*.host1.app[7].source.packetNameFormat = "%M-%m-%c"
*.host1.app[7].source.displayStringTextFormat = "sent %p pk (%l)"
*.host1.app[7].messageLength = 12B
*.host1.app[7].sendInterval = 1ms
*.host1.app[7].startTime = 10ms
*.host1.app[7].stopTime = 13ms
*.host1.app[7].display-name = "type2_6"
*.host1.app[7].destPort = 1001
*.host1.app[8].typename = "UdpBasicApp"
*.host1.app[8].destAddresses = "host0"
*.host1.app[8].source.packetNameFormat = "%M-%m-%c"
*.host1.app[8].source.displayStringTextFormat = "sent %p pk (%l)"
*.host1.app[8].messageLength = 12B
*.host1.app[8].sendInterval = 1ms
*.host1.app[8].startTime = 36ms
*.host1.app[8].stopTime = 41ms
*.host1.app[8].display-name = "type2_6"
*.host1.app[8].destPort = 1001
*.host1.app[9].typename = "UdpBasicApp"
*.host1.app[9].destAddresses = "host0"
*.host1.app[9].source.packetNameFormat = "%M-%m-%c"
*.host1.app[9].source.displayStringTextFormat = "sent %p pk (%l)"
*.host1.app[9].messageLength = 12B
*.host1.app[9].sendInterval = 1ms
*.host1.app[9].startTime = 52ms
*.host1.app[9].stopTime = 72ms
*.host1.app[9].display-name = "type2_6"
*.host1.app[9].destPort = 1001
*.host1.app[10].typename = "UdpBasicApp"
*.host1.app[10].destAddresses = "host0"
*.host1.app[10].source.packetNameFormat = "%M-%m-%c"
*.host1.app[10].source.displayStringTextFormat = "sent %p pk (%l)"
*.host1.app[10].messageLength = 12B
*.host1.app[10].sendInterval = 1ms
*.host1.app[10].startTime = 80ms
*.host1.app[10].stopTime = 89ms
*.host1.app[10].display-name = "type2_6"
*.host1.app[10].destPort = 1001
*.host1.app[11].typename = "UdpBasicApp"
*.host1.app[11].destAddresses = "host0"
*.host1.app[11].source.packetNameFormat = "%M-%m-%c"
*.host1.app[11].source.displayStringTextFormat = "sent %p pk (%l)"
*.host1.app[11].messageLength = 12B
*.host1.app[11].sendInterval = 1ms
*.host1.app[11].startTime = 92ms
*.host1.app[11].stopTime = 100ms
*.host1.app[11].display-name = "type2_6"
*.host1.app[11].destPort = 1001
*.host1.app[12].typename = "UdpBasicApp"
*.host1.app[12].destAddresses = "host11"
*.host1.app[12].source.packetNameFormat = "%M-%m-%c"
*.host1.app[12].source.displayStringTextFormat = "sent %p pk (%l)"
*.host1.app[12].messageLength = 19B
*.host1.app[12].sendInterval = 1ms
*.host1.app[12].startTime = 7ms
*.host1.app[12].stopTime = 13ms
*.host1.app[12].display-name = "type2_11"
*.host1.app[12].destPort = 1000
*.host1.app[13].typename = "UdpBasicApp"
*.host1.app[13].destAddresses = "host11"
*.host1.app[13].source.packetNameFormat = "%M-%m-%c"
*.host1.app[13].source.displayStringTextFormat = "sent %p pk (%l)"
*.host1.app[13].messageLength = 19B
*.host1.app[13].sendInterval = 1ms
*.host1.app[13].startTime = 37ms
*.host1.app[13].stopTime = 52ms
*.host1.app[13].display-name = "type2_11"
*.host1.app[13].destPort = 1000
*.host1.app[14].typename = "UdpBasicApp"
*.host1.app[14].destAddresses = "host11"
*.host1.app[14].source.packetNameFormat = "%M-%m-%c"
*.host1.app[14].source.displayStringTextFormat = "sent %p pk (%l)"
*.host1.app[14].messageLength = 19B
*.host1.app[14].sendInterval = 1ms
*.host1.app[14].startTime = 53ms
*.host1.app[14].stopTime = 77ms
*.host1.app[14].display-name = "type2_11"
*.host1.app[14].destPort = 1000
*.host1.app[15].typename = "UdpBasicApp"
*.host1.app[15].destAddresses = "host11"
*.host1.app[15].source.packetNameFormat = "%M-%m-%c"
*.host1.app[15].source.displayStringTextFormat = "sent %p pk (%l)"
*.host1.app[15].messageLength = 19B
*.host1.app[15].sendInterval = 1ms
*.host1.app[15].startTime = 84ms
*.host1.app[15].stopTime = 85ms
*.host1.app[15].display-name = "type2_11"
*.host1.app[15].destPort = 1000
*.host2.numApps = 4
*.host2.app[0].typename = "UdpSinkApp"
*.host2.app[0].io.localPort = 1000
*.host2.app[1].typename = "UdpSourceApp"
*.host2.app[1].io.destAddress = "host3"
*.host2.app[1].source.packetNameFormat = "%M-%m-%c"
*.host2.app[1].source.displayStringTextFormat = "sent %p pk (%l)"
*.host2.app[1].source.packetLength = 23B
*.host2.app[1].source.productionInterval = 1ms
*.host2.app[1].display-name = "type1_7"
*.host2.app[1].io.destPort = 1001
*.host2.app[2].typename = "UdpSinkApp"
*.host2.app[2].io.localPort = 1001
*.host2.app[3].typename = "UdpSinkApp"
*.host2.app[3].io.localPort = 1002
*.host3.numApps = 13
*.host3.app[0].typename = "UdpSinkApp"
*.host3.app[0].io.localPort = 1000
*.host3.app[1].typename = "UdpSinkApp"
*.host3.app[1].io.localPort = 1001
*.host3.app[2].typename = "UdpSinkApp"
*.host3.app[2].io.localPort = 1002
*.host3.app[3].typename = "UdpSinkApp"
*.host3.app[3].io.localPort = 1003
*.host3.app[4].typename = "UdpSourceApp"
*.host3.app[4].io.destAddress = "host9"
*.host3.app[4].source.packetNameFormat = "%M-%m-%c"
*.host3.app[4].source.displayStringTextFormat = "sent %p pk (%l)"
*.host3.app[4].source.packetLength = 14B
*.host3.app[4].source.productionInterval = 1ms
*.host3.app[4].display-name = "type1_12"
*.host3.app[4].io.destPort = 1000
*.host3.app[5].typename = "UdpSourceApp"
*.host3.app[5].io.destAddress = "host2"
*.host3.app[5].source.packetNameFormat = "%M-%m-%c"
*.host3.app[5].source.displayStringTextFormat = "sent %p pk (%l)"
*.host3.app[5].source.packetLength = 21B
*.host3.app[5].source.productionInterval = 1ms
*.host3.app[5].display-name = "type1_14"
*.host3.app[5].io.destPort = 1001
*.host3.app[6].typename = "UdpBasicApp"
*.host3.app[6].destAddresses = "host7"
*.host3.app[6].source.packetNameFormat = "%M-%m-%c"
*.host3.app[6].source.displayStringTextFormat = "sent %p pk (%l)"
*.host3.app[6].messageLength = 17B
*.host3.app[6].sendInterval = 1ms
*.host3.app[6].startTime = 14ms
*.host3.app[6].stopTime = 25ms
*.host3.app[6].display-name = "type2_12"
*.host3.app[6].destPort = 1000
*.host3.app[7].typename = "UdpBasicApp"
*.host3.app[7].destAddresses = "host7"
*.host3.app[7].source.packetNameFormat = "%M-%m-%c"
*.host3.app[7].source.displayStringTextFormat = "sent %p pk (%l)"
*.host3.app[7].messageLength = 17B
*.host3.app[7].sendInterval = 1ms
*.host3.app[7].startTime = 41ms
*.host3.app[7].stopTime = 100ms
*.host3.app[7].display-name = "type2_12"
*.host3.app[7].destPort = 1000
*.host3.app[8].typename = "UdpBasicApp"
*.host3.app[8].destAddresses = "host12"
*.host3.app[8].source.packetNameFormat = "%M-%m-%c"
*.host3.app[8].source.displayStringTextFormat = "sent %p pk (%l)"
*.host3.app[8].messageLength = 17B
*.host3.app[8].sendInterval = 1ms
*.host3.app[8].startTime = 4ms
*.host3.app[8].stopTime = 10ms
*.host3.app[8].display-name = "type2_14"
*.host3.app[8].destPort = 1003
*.host3.app[9].typename = "UdpBasicApp"
*.host3.app[9].destAddresses = "host12"
*.host3.app[9].source.packetNameFormat = "%M-%m-%c"
*.host3.app[9].source.displayStringTextFormat = "sent %p pk (%l)"
*.host3.app[9].messageLength = 17B
*.host3.app[9].sendInterval = 1ms
*.host3.app[9].startTime = 30ms
*.host3.app[9].stopTime = 35ms
*.host3.app[9].display-name = "type2_14"
*.host3.app[9].destPort = 1003
*.host3.app[10].typename = "UdpBasicApp"
*.host3.app[10].destAddresses = "host12"
*.host3.app[10].source.packetNameFormat = "%M-%m-%c"
*.host3.app[10].source.displayStringTextFormat = "sent %p pk (%l)"
*.host3.app[10].messageLength = 17B
*.host3.app[10].sendInterval = 1ms
*.host3.app[10].startTime = 47ms
*.host3.app[10].stopTime = 59ms
*.host3.app[10].display-name = "type2_14"
*.host3.app[10].destPort = 1003
*.host3.app[11].typename = "UdpBasicApp"
*.host3.app[11].destAddresses = "host12"
*.host3.app[11].source.packetNameFormat = "%M-%m-%c"
*.host3.app[11].source.displayStringTextFormat = "sent %p pk (%l)"
*.host3.app[11].messageLength = 17B
*.host3.app[11].sendInterval = 1ms
*.host3.app[11].startTime = 78ms
*.host3.app[11].stopTime = 87ms
*.host3.app[11].display-name = "type2_14"
*.host3.app[11].destPort = 1003
*.host3.app[12].typename = "UdpBasicApp"
*.host3.app[12].destAddresses = "host12"
*.host3.app[12].source.packetNameFormat = "%M-%m-%c"
*.host3.app[12].source.displayStringTextFormat = "sent %p pk (%l)"
*.host3.app[12].messageLength = 17B
*.host3.app[12].sendInterval = 1ms
*.host3.app[12].startTime = 93ms
*.host3.app[12].stopTime = 94ms
*.host3.app[12].display-name = "type2_14"
*.host3.app[12].destPort = 1003
*.host4.numApps = 3
*.host4.app[0].typename = "UdpSinkApp"
*.host4.app[0].io.localPort = 1000
*.host4.app[1].typename = "UdpSourceApp"
*.host4.app[1].io.destAddress = "host0"
*.host4.app[1].source.packetNameFormat = "%M-%m-%c"
*.host4.app[1].source.displayStringTextFormat = "sent %p pk (%l)"
*.host4.app[1].source.packetLength = 22B
*.host4.app[1].source.productionInterval = 1ms
*.host4.app[1].display-name = "type1_4"
*.host4.app[1].io.destPort = 1000
*.host4.app[2].typename = "UdpSinkApp"
*.host4.app[2].io.localPort = 1001
*.host5.numApps = 2
*.host5.app[0].typename = "UdpSinkApp"
*.host5.app[0].io.localPort = 1000
*.host5.app[1].typename = "UdpSinkApp"
*.host5.app[1].io.localPort = 1001
*.host6.numApps = 14
*.host6.app[0].typename = "UdpSourceApp"
*.host6.app[0].io.destAddress = "host14"
*.host6.app[0].source.packetNameFormat = "%M-%m-%c"
*.host6.app[0].source.displayStringTextFormat = "sent %p pk (%l)"
*.host6.app[0].source.packetLength = 23B
*.host6.app[0].source.productionInterval = 1ms
*.host6.app[0].display-name = "type1_0"
*.host6.app[0].io.destPort = 1000
*.host6.app[1].typename = "UdpBasicApp"
*.host6.app[1].destAddresses = "host8"
*.host6.app[1].source.packetNameFormat = "%M-%m-%c"
*.host6.app[1].source.displayStringTextFormat = "sent %p pk (%l)"
*.host6.app[1].messageLength = 13B
*.host6.app[1].sendInterval = 1ms
*.host6.app[1].startTime = 4ms
*.host6.app[1].stopTime = 7ms
*.host6.app[1].display-name = "type2_5"
*.host6.app[1].destPort = 1001
*.host6.app[2].typename = "UdpBasicApp"
*.host6.app[2].destAddresses = "host8"
*.host6.app[2].source.packetNameFormat = "%M-%m-%c"
*.host6.app[2].source.displayStringTextFormat = "sent %p pk (%l)"
*.host6.app[2].messageLength = 13B
*.host6.app[2].sendInterval = 1ms
*.host6.app[2].startTime = 8ms
*.host6.app[2].stopTime = 9ms
*.host6.app[2].display-name = "type2_5"
*.host6.app[2].destPort = 1001
*.host6.app[3].typename = "UdpBasicApp"
*.host6.app[3].destAddresses = "host8"
*.host6.app[3].source.packetNameFormat = "%M-%m-%c"
*.host6.app[3].source.displayStringTextFormat = "sent %p pk (%l)"
*.host6.app[3].messageLength = 13B
*.host6.app[3].sendInterval = 1ms
*.host6.app[3].startTime = 11ms
*.host6.app[3].stopTime = 18ms
*.host6.app[3].display-name = "type2_5"
*.host6.app[3].destPort = 1001
*.host6.app[4].typename = "UdpBasicApp"
*.host6.app[4].destAddresses = "host8"
*.host6.app[4].source.packetNameFormat = "%M-%m-%c"
*.host6.app[4].source.displayStringTextFormat = "sent %p pk (%l)"
*.host6.app[4].messageLength = 13B
*.host6.app[4].sendInterval = 1ms
*.host6.app[4].startTime = 34ms
*.host6.app[4].stopTime = 36ms
*.host6.app[4].display-name = "type2_5"
*.host6.app[4].destPort = 1001
*.host6.app[5].typename = "UdpBasicApp"
*.host6.app[5].destAddresses = "host8"
*.host6.app[5].source.packetNameFormat = "%M-%m-%c"
*.host6.app[5].source.displayStringTextFormat = "sent %p pk (%l)"
*.host6.app[5].messageLength = 13B
*.host6.app[5].sendInterval = 1ms
*.host6.app[5].startTime = 42ms
*.host6.app[5].stopTime = 46ms
*.host6.app[5].display-name = "type2_5"
*.host6.app[5].destPort = 1001
*.host6.app[6].typename = "UdpBasicApp"
*.host6.app[6].destAddresses = "host8"
*.host6.app[6].source.packetNameFormat = "%M-%m-%c"
*.host6.app[6].source.displayStringTextFormat = "sent %p pk (%l)"
*.host6.app[6].messageLength = 13B
*.host6.app[6].sendInterval = 1ms
*.host6.app[6].startTime = 48ms
*.host6.app[6].stopTime = 49ms
*.host6.app[6].display-name = "type2_5"
*.host6.app[6].destPort = 1001
*.host6.app[7].typename = "UdpBasicApp"
*.host6.app[7].destAddresses = "host8"
*.host6.app[7].source.packetNameFormat = "%M-%m-%c"
*.host6.app[7].source.displayStringTextFormat = "sent %p pk (%l)"
*.host6.app[7].messageLength = 13B
*.host6.app[7].sendInterval = 1ms
*.host6.app[7].startTime = 52ms
*.host6.app[7].stopTime = 59ms
*.host6.app[7].display-name = "type2_5"
*.host6.app[7].destPort = 1001
*.host6.app[8].typename = "UdpBasicApp"
*.host6.app[8].destAddresses = "host8"
*.host6.app[8].source.packetNameFormat = "%M-%m-%c"
*.host6.app[8].source.displayStringTextFormat = "sent %p pk (%l)"
*.host6.app[8].messageLength = 13B
*.host6.app[8].sendInterval = 1ms
*.host6.app[8].startTime = 71ms
*.host6.app[8].stopTime = 79ms
*.host6.app[8].display-name = "type2_5"
*.host6.app[8].destPort = 1001
*.host6.app[9].typename = "UdpBasicApp"
*.host6.app[9].destAddresses = "host8"
*.host6.app[9].source.packetNameFormat = "%M-%m-%c"
*.host6.app[9].source.displayStringTextFormat = "sent %p pk (%l)"
*.host6.app[9].messageLength = 13B
*.host6.app[9].sendInterval = 1ms
*.host6.app[9].startTime = 84ms
*.host6.app[9].stopTime = 85ms
*.host6.app[9].display-name = "type2_5"
*.host6.app[9].destPort = 1001
*.host6.app[10].typename = "UdpBasicApp"
*.host6.app[10].destAddresses = "host8"
*.host6.app[10].source.packetNameFormat = "%M-%m-%c"
*.host6.app[10].source.displayStringTextFormat = "sent %p pk (%l)"
*.host6.app[10].messageLength = 13B
*.host6.app[10].sendInterval = 1ms
*.host6.app[10].startTime = 88ms
*.host6.app[10].stopTime = 92ms
*.host6.app[10].display-name = "type2_5"
*.host6.app[10].destPort = 1001
*.host6.app[11].typename = "UdpBasicApp"
*.host6.app[11].destAddresses = "host8"
*.host6.app[11].source.packetNameFormat = "%M-%m-%c"
*.host6.app[11].source.displayStringTextFormat = "sent %p pk (%l)"
*.host6.app[11].messageLength = 13B
*.host6.app[11].sendInterval = 1ms
*.host6.app[11].startTime = 94ms
*.host6.app[11].stopTime = 95ms
*.host6.app[11].display-name = "type2_5"
*.host6.app[11].destPort = 1001
*.host6.app[12].typename = "UdpBasicApp"
*.host6.app[12].destAddresses = "host8"
*.host6.app[12].source.packetNameFormat = "%M-%m-%c"
*.host6.app[12].source.displayStringTextFormat = "sent %p pk (%l)"
*.host6.app[12].messageLength = 13B
*.host6.app[12].sendInterval = 1ms
*.host6.app[12].startTime = 98ms
*.host6.app[12].stopTime = 100ms
*.host6.app[12].display-name = "type2_5"
*.host6.app[12].destPort = 1001
*.host6.app[13].typename = "UdpSinkApp"
*.host6.app[13].io.localPort = 1000
*.host7.numApps = 2
*.host7.app[0].typename = "UdpSourceApp"
*.host7.app[0].io.destAddress = "host3"
*.host7.app[0].source.packetNameFormat = "%M-%m-%c"
*.host7.app[0].source.displayStringTextFormat = "sent %p pk (%l)"
*.host7.app[0].source.packetLength = 15B
*.host7.app[0].source.productionInterval = 1ms
*.host7.app[0].display-name = "type1_9"
*.host7.app[0].io.destPort = 1002
*.host7.app[1].typename = "UdpSinkApp"
*.host7.app[1].io.localPort = 1000
*.host8.numApps = 10
*.host8.app[0].typename = "UdpSinkApp"
*.host8.app[0].io.localPort = 1000
*.host8.app[1].typename = "UdpSinkApp"
*.host8.app[1].io.localPort = 1001
*.host8.app[2].typename = "UdpBasicApp"
*.host8.app[2].destAddresses = "host5"
*.host8.app[2].source.packetNameFormat = "%M-%m-%c"
*.host8.app[2].source.displayStringTextFormat = "sent %p pk (%l)"
*.host8.app[2].messageLength = 17B
*.host8.app[2].sendInterval = 1ms
*.host8.app[2].startTime = 2ms
*.host8.app[2].stopTime = 4ms
*.host8.app[2].display-name = "type2_13"
*.host8.app[2].destPort = 1001
*.host8.app[3].typename = "UdpBasicApp"
*.host8.app[3].destAddresses = "host5"
*.host8.app[3].source.packetNameFormat = "%M-%m-%c"
*.host8.app[3].source.displayStringTextFormat = "sent %p pk (%l)"
*.host8.app[3].messageLength = 17B
*.host8.app[3].sendInterval = 1ms
*.host8.app[3].startTime = 9ms
*.host8.app[3].stopTime = 10ms
*.host8.app[3].display-name = "type2_13"
*.host8.app[3].destPort = 1001
*.host8.app[4].typename = "UdpBasicApp"
*.host8.app[4].destAddresses = "host5"
*.host8.app[4].source.packetNameFormat = "%M-%m-%c"
*.host8.app[4].source.displayStringTextFormat = "sent %p pk (%l)"
*.host8.app[4].messageLength = 17B
*.host8.app[4].sendInterval = 1ms
*.host8.app[4].startTime = 21ms
*.host8.app[4].stopTime = 24ms
*.host8.app[4].display-name = "type2_13"
*.host8.app[4].destPort = 1001
*.host8.app[5].typename = "UdpBasicApp"
*.host8.app[5].destAddresses = "host5"
*.host8.app[5].source.packetNameFormat = "%M-%m-%c"
*.host8.app[5].source.displayStringTextFormat = "sent %p pk (%l)"
*.host8.app[5].messageLength = 17B
*.host8.app[5].sendInterval = 1ms
*.host8.app[5].startTime = 25ms
*.host8.app[5].stopTime = 30ms
*.host8.app[5].display-name = "type2_13"
*.host8.app[5].destPort = 1001
*.host8.app[6].typename = "UdpBasicApp"
*.host8.app[6].destAddresses = "host5"
*.host8.app[6].source.packetNameFormat = "%M-%m-%c"
*.host8.app[6].source.displayStringTextFormat = "sent %p pk (%l)"
*.host8.app[6].messageLength = 17B
*.host8.app[6].sendInterval = 1ms
*.host8.app[6].startTime = 31ms
*.host8.app[6].stopTime = 40ms
*.host8.app[6].display-name = "type2_13"
*.host8.app[6].destPort = 1001
*.host8.app[7].typename = "UdpBasicApp"
*.host8.app[7].destAddresses = "host5"
*.host8.app[7].source.packetNameFormat = "%M-%m-%c"
*.host8.app[7].source.displayStringTextFormat = "sent %p pk (%l)"
*.host8.app[7].messageLength = 17B