[General]
network = TSN_multipath
sim-time-limit = 100ms
*.macForwardingTableConfigurator.typename = ""
*.*.hasStreamRedundancy = true
*.*.bridging.streamRelay.typename = "StreamRelayLayer"
*.*.bridging.streamCoder.typename = "StreamCoderLayer"
*.streamRedundancyConfigurator.typename = "StreamRedundancyConfigurator"
*.host0.eth[0].bitrate = 1000Mbps
*.switch0.eth[0].bitrate = 1000Mbps
*.switch0.eth[1].bitrate = 1900Mbps
*.switch0.eth[2].bitrate = 2300Mbps
*.host1.eth[0].bitrate = 1000Mbps
*.switch1.eth[0].bitrate = 1000Mbps
*.switch1.eth[1].bitrate = 1200Mbps
*.switch1.eth[2].bitrate = 2200Mbps
*.switch1.eth[3].bitrate = 2000Mbps
*.host2.eth[0].bitrate = 1000Mbps
*.switch2.eth[0].bitrate = 1000Mbps
*.switch2.eth[1].bitrate = 1800Mbps
*.switch2.eth[2].bitrate = 1400Mbps
*.host3.eth[0].bitrate = 1000Mbps
*.switch3.eth[0].bitrate = 1000Mbps
*.switch3.eth[1].bitrate = 1900Mbps
*.switch3.eth[2].bitrate = 1200Mbps
*.switch3.eth[3].bitrate = 2200Mbps
*.switch3.eth[4].bitrate = 2000Mbps
*.host4.eth[0].bitrate = 1000Mbps
*.switch4.eth[0].bitrate = 1000Mbps
*.switch4.eth[1].bitrate = 1800Mbps
*.switch4.eth[2].bitrate = 2000Mbps
*.switch4.eth[3].bitrate = 2300Mbps
*.switch4.eth[4].bitrate = 2000Mbps
*.switch4.eth[5].bitrate = 1400Mbps
*.host0.numApps = 10
*.host0.app[0].typename = "UdpSinkApp"
*.host0.app[0].io.localPort = 1000
*.host0.app[1].typename = "UdpBasicApp"
*.host0.app[1].destAddresses = "host2"
*.host0.app[1].source.packetNameFormat = "%M-%m-%c"
*.host0.app[1].source.displayStringTextFormat = "sent %p pk (%l)"
*.host0.app[1].messageLength = 19B
*.host0.app[1].sendInterval = 1ms
*.host0.app[1].startTime = 2ms
*.host0.app[1].stopTime = 16ms
*.host0.app[1].display-name = "type2_0"
*.host0.app[1].destPort = 1000
*.host0.app[2].typename = "UdpBasicApp"
*.host0.app[2].destAddresses = "host2"
*.host0.app[2].source.packetNameFormat = "%M-%m-%c"
*.host0.app[2].source.displayStringTextFormat = "sent %p pk (%l)"
*.host0.app[2].messageLength = 19B
*.host0.app[2].sendInterval = 1ms
*.host0.app[2].startTime = 51ms
*.host0.app[2].stopTime = 52ms
*.host0.app[2].display-name = "type2_0"
*.host0.app[2].destPort = 1000
*.host0.app[3].typename = "UdpBasicApp"
*.host0.app[3].destAddresses = "host2"
*.host0.app[3].source.packetNameFormat = "%M-%m-%c"
*.host0.app[3].source.displayStringTextFormat = "sent %p pk (%l)"
*.host0.app[3].messageLength = 19B
*.host0.app[3].sendInterval = 1ms
*.host0.app[3].startTime = 53ms
*.host0.app[3].stopTime = 58ms
*.host0.app[3].display-name = "type2_0"
*.host0.app[3].destPort = 1000
*.host0.app[4].typename = "UdpBasicApp"
*.host0.app[4].destAddresses = "host2"
*.host0.app[4].source.packetNameFormat = "%M-%m-%c"
*.host0.app[4].source.displayStringTextFormat = "sent %p pk (%l)"
*.host0.app[4].messageLength = 19B
*.host0.app[4].sendInterval = 1ms
*.host0.app[4].startTime = 61ms
*.host0.app[4].stopTime = 63ms
*.host0.app[4].display-name = "type2_0"
*.host0.app[4].destPort = 1000
*.host0.app[5].typename = "UdpBasicApp"
*.host0.app[5].destAddresses = "host2"
*.host0.app[5].source.packetNameFormat = "%M-%m-%c"
*.host0.app[5].source.displayStringTextFormat = "sent %p pk (%l)"
*.host0.app[5].messageLength = 19B
*.host0.app[5].sendInterval = 1ms
*.host0.app[5].startTime = 64ms
*.host0.app[5].stopTime = 70ms
*.host0.app[5].display-name = "type2_0"
*.host0.app[5].destPort = 1000
*.host0.app[6].typename = "UdpBasicApp"
*.host0.app[6].destAddresses = "host2"
*.host0.app[6].source.packetNameFormat = "%M-%m-%c"
*.host0.app[6].source.displayStringTextFormat = "sent %p pk (%l)"
*.host0.app[6].messageLength = 19B
*.host0.app[6].sendInterval = 1ms
*.host0.app[6].startTime = 77ms
*.host0.app[6].stopTime = 83ms
*.host0.app[6].display-name = "type2_0"
*.host0.app[6].destPort = 1000
*.host0.app[7].typename = "UdpBasicApp"
*.host0.app[7].destAddresses = "host2"
*.host0.app[7].source.packetNameFormat = "%M-%m-%c"
*.host0.app[7].source.displayStringTextFormat = "sent %p pk (%l)"
*.host0.app[7].messageLength = 19B
*.host0.app[7].sendInterval = 1ms
*.host0.app[7].startTime = 96ms
*.host0.app[7].stopTime = 100ms
*.host0.app[7].display-name = "type2_0"
*.host0.app[7].destPort = 1000
*.host0.app[8].typename = "UdpSinkApp"
*.host0.app[8].io.localPort = 1001
*.host0.app[9].typename = "UdpSinkApp"
*.host0.app[9].io.localPort = 1002
*.host1.numApps = 9
*.host1.app[0].typename = "UdpSinkApp"
*.host1.app[0].io.localPort = 1000
*.host1.app[1].typename = "UdpSinkApp"
*.host1.app[1].io.localPort = 1001
*.host1.app[2].typename = "UdpSinkApp"
*.host1.app[2].io.localPort = 1002
*.host1.app[3].typename = "UdpSinkApp"
*.host1.app[3].io.localPort = 1003
*.host1.app[4].typename = "UdpBasicApp"
*.host1.app[4].destAddresses = "host0"
*.host1.app[4].source.packetNameFormat = "%M-%m-%c"
*.host1.app[4].source.displayStringTextFormat = "sent %p pk (%l)"
*.host1.app[4].messageLength = 24B
*.host1.app[4].sendInterval = 1ms
*.host1.app[4].startTime = 0ms
*.host1.app[4].stopTime = 2ms
*.host1.app[4].display-name = "type2_3"
*.host1.app[4].destPort = 1002
*.host1.app[5].typename = "UdpBasicApp"
*.host1.app[5].destAddresses = "host0"
*.host1.app[5].source.packetNameFormat = "%M-%m-%c"
*.host1.app[5].source.displayStringTextFormat = "sent %p pk (%l)"
*.host1.app[5].messageLength = 24B
*.host1.app[5].sendInterval = 1ms
*.host1.app[5].startTime = 7ms
*.host1.app[5].stopTime = 21ms
*.host1.app[5].display-name = "type2_3"
*.host1.app[5].destPort = 1002
*.host1.app[6].typename = "UdpBasicApp"
*.host1.app[6].destAddresses = "host0"
*.host1.app[6].source.packetNameFormat = "%M-%m-%c"
*.host1.app[6].source.displayStringTextFormat = "sent %p pk (%l)"
*.host1.app[6].messageLength = 24B
*.host1.app[6].sendInterval = 1ms
*.host1.app[6].startTime = 25ms
*.host1.app[6].stopTime = 33ms
*.host1.app[6].display-name = "type2_3"
*.host1.app[6].destPort = 1002
*.host1.app[7].typename = "UdpBasicApp"
*.host1.app[7].destAddresses = "host0"
*.host1.app[7].source.packetNameFormat = "%M-%m-%c"
*.host1.app[7].source.displayStringTextFormat = "sent %p pk (%l)"
*.host1.app[7].messageLength = 24B
*.host1.app[7].sendInterval = 1ms
*.host1.app[7].startTime = 54ms
*.host1.app[7].stopTime = 95ms
*.host1.app[7].display-name = "type2_3"
*.host1.app[7].destPort = 1002
*.host1.app[8].typename = "UdpBasicApp"
*.host1.app[8].destAddresses = "host0"
*.host1.app[8].source.packetNameFormat = "%M-%m-%c"
*.host1.app[8].source.displayStringTextFormat = "sent %p pk (%l)"
*.host1.app[8].messageLength = 24B
*.host1.app[8].sendInterval = 1ms
*.host1.app[8].startTime = 98ms
*.host1.app[8].stopTime = 99ms
*.host1.app[8].display-name = "type2_3"
*.host1.app[8].destPort = 1002
*.host2.numApps = 7
*.host2.app[0].typename = "UdpSourceApp"
*.host2.app[0].io.destAddress = "host1"
*.host2.app[0].source.packetNameFormat = "%M-%m-%c"
*.host2.app[0].source.displayStringTextFormat = "sent %p pk (%l)"
*.host2.app[0].source.packetLength = 16B
*.host2.app[0].source.productionInterval = 1ms
*.host2.app[0].display-name = "type1_0"
*.host2.app[0].io.destPort = 1000
*.host2.app[1].typename = "UdpSourceApp"
*.host2.app[1].io.destAddress = "host0"
*.host2.app[1].source.packetNameFormat = "%M-%m-%c"
*.host2.app[1].source.displayStringTextFormat = "sent %p pk (%l)"
*.host2.app[1].source.packetLength = 22B
*.host2.app[1].source.productionInterval = 1ms
*.host2.app[1].display-name = "type1_1"
*.host2.app[1].io.destPort = 1000
*.host2.app[2].typename = "UdpSinkApp"
*.host2.app[2].io.localPort = 1000
*.host2.app[3].typename = "UdpBasicApp"
*.host2.app[3].destAddresses = "host0"
*.host2.app[3].source.packetNameFormat = "%M-%m-%c"
*.host2.app[3].source.displayStringTextFormat = "sent %p pk (%l)"
*.host2.app[3].messageLength = 21B
*.host2.app[3].sendInterval = 1ms
*.host2.app[3].startTime = 27ms
*.host2.app[3].stopTime = 29ms
*.host2.app[3].display-name = "type2_2"
*.host2.app[3].destPort = 1001
*.host2.app[4].typename = "UdpBasicApp"
*.host2.app[4].destAddresses = "host0"
*.host2.app[4].source.packetNameFormat = "%M-%m-%c"
*.host2.app[4].source.displayStringTextFormat = "sent %p pk (%l)"
*.host2.app[4].messageLength = 21B
*.host2.app[4].sendInterval = 1ms
*.host2.app[4].startTime = 44ms
*.host2.app[4].stopTime = 48ms
*.host2.app[4].display-name = "type2_2"
*.host2.app[4].destPort = 1001
*.host2.app[5].typename = "UdpBasicApp"
*.host2.app[5].destAddresses = "host0"
*.host2.app[5].source.packetNameFormat = "%M-%m-%c"
*.host2.app[5].source.displayStringTextFormat = "sent %p pk (%l)"
*.host2.app[5].messageLength = 21B
*.host2.app[5].sendInterval = 1ms
*.host2.app[5].startTime = 54ms
*.host2.app[5].stopTime = 74ms
*.host2.app[5].display-name = "type2_2"
*.host2.app[5].destPort = 1001
*.host2.app[6].typename = "UdpBasicApp"
*.host2.app[6].destAddresses = "host0"
*.host2.app[6].source.packetNameFormat = "%M-%m-%c"
*.host2.app[6].source.displayStringTextFormat = "sent %p pk (%l)"
*.host2.app[6].messageLength = 21B
*.host2.app[6].sendInterval = 1ms
*.host2.app[6].startTime = 92ms
*.host2.app[6].stopTime = 100ms
*.host2.app[6].display-name = "type2_2"
*.host2.app[6].destPort = 1001
*.host3.numApps = 1
*.host3.app[0].typename = "UdpSourceApp"
*.host3.app[0].io.destAddress = "host1"
*.host3.app[0].source.packetNameFormat = "%M-%m-%c"
*.host3.app[0].source.displayStringTextFormat = "sent %p pk (%l)"
*.host3.app[0].source.packetLength = 15B
*.host3.app[0].source.productionInterval = 1ms
*.host3.app[0].display-name = "type1_3"
*.host3.app[0].io.destPort = 1002
*.host4.numApps = 7
*.host4.app[0].typename = "UdpSourceApp"
*.host4.app[0].io.destAddress = "host1"
*.host4.app[0].source.packetNameFormat = "%M-%m-%c"
*.host4.app[0].source.displayStringTextFormat = "sent %p pk (%l)"
*.host4.app[0].source.packetLength = 20B
*.host4.app[0].source.productionInterval = 1ms
*.host4.app[0].display-name = "type1_2"
*.host4.app[0].io.destPort = 1001
*.host4.app[1].typename = "UdpBasicApp"
*.host4.app[1].destAddresses = "host1"
*.host4.app[1].source.packetNameFormat = "%M-%m-%c"
*.host4.app[1].source.displayStringTextFormat = "sent %p pk (%l)"
*.host4.app[1].messageLength = 13B
*.host4.app[1].sendInterval = 1ms
*.host4.app[1].startTime = 5ms
*.host4.app[1].stopTime = 31ms
*.host4.app[1].display-name = "type2_1"
*.host4.app[1].destPort = 1003
*.host4.app[2].typename = "UdpBasicApp"
*.host4.app[2].destAddresses = "host1"
*.host4.app[2].source.packetNameFormat = "%M-%m-%c"
*.host4.app[2].source.displayStringTextFormat = "sent %p pk (%l)"
*.host4.app[2].messageLength = 13B
*.host4.app[2].sendInterval = 1ms
*.host4.app[2].startTime = 35ms
*.host4.app[2].stopTime = 46ms
*.host4.app[2].display-name = "type2_1"
*.host4.app[2].destPort = 1003
*.host4.app[3].typename = "UdpBasicApp"
*.host4.app[3].destAddresses = "host1"
*.host4.app[3].source.packetNameFormat = "%M-%m-%c"
*.host4.app[3].source.displayStringTextFormat = "sent %p pk (%l)"
*.host4.app[3].messageLength = 13B
*.host4.app[3].sendInterval = 1ms
*.host4.app[3].startTime = 63ms
*.host4.app[3].stopTime = 67ms
*.host4.app[3].display-name = "type2_1"
*.host4.app[3].destPort = 1003
*.host4.app[4].typename = "UdpBasicApp"
*.host4.app[4].destAddresses = "host1"
*.host4.app[4].source.packetNameFormat = "%M-%m-%c"
*.host4.app[4].source.displayStringTextFormat = "sent %p pk (%l)"
*.host4.app[4].messageLength = 13B
*.host4.app[4].sendInterval = 1ms
*.host4.app[4].startTime = 68ms
*.host4.app[4].stopTime = 72ms
*.host4.app[4].display-name = "type2_1"
*.host4.app[4].destPort = 1003
*.host4.app[5].typename = "UdpBasicApp"
*.host4.app[5].destAddresses = "host1"
*.host4.app[5].source.packetNameFormat = "%M-%m-%c"
*.host4.app[5].source.displayStringTextFormat = "sent %p pk (%l)"
*.host4.app[5].messageLength = 13B
*.host4.app[5].sendInterval = 1ms
*.host4.app[5].startTime = 80ms
*.host4.app[5].stopTime = 90ms
*.host4.app[5].display-name = "type2_1"
*.host4.app[5].destPort = 1003
*.host4.app[6].typename = "UdpBasicApp"
*.host4.app[6].destAddresses = "host1"
*.host4.app[6].source.packetNameFormat = "%M-%m-%c"
*.host4.app[6].source.displayStringTextFormat = "sent %p pk (%l)"
*.host4.app[6].messageLength = 13B
*.host4.app[6].sendInterval = 1ms
*.host4.app[6].startTime = 95ms
*.host4.app[6].stopTime = 100ms
*.host4.app[6].display-name = "type2_1"
*.host4.app[6].destPort = 1003
*.streamRedundancyConfigurator.configuration = [
	{
		name: "S1-0",
		packetFilter: "*-type1_0-*",
		source: "host2",
		destination: "host1",
		trees: [[["host2", "switch2", "switch4", "switch0", "switch3", "switch1", "host1"]]]
	},
	{
		name: "S1-1",
		packetFilter: "*-type1_1-*",
		source: "host2",
		destination: "host0",
		trees: [[["host2", "switch2", "switch4", "switch0", "host0"]]]
	},
	{
		name: "S1-2",
		packetFilter: "*-type1_2-*",
		source: "host4",
		destination: "host1",
		trees: [[["host4", "switch4", "switch0", "switch3", "switch1", "host1"]]]
	},
	{
		name: "S1-3",
		packetFilter: "*-type1_3-*",
		source: "host3",
		destination: "host1",
		trees: [[["host3", "switch3", "switch1", "host1"]]]
	},
	{
		name: "S2-0",
		packetFilter: "*-type2_0-*",
		source: "host0",
		destination: "host2",
		trees: [[["host0", "switch0", "switch3", "switch4", "switch2", "host2"]]]
	},
	{
		name: "S2-1",
		packetFilter: "*-type2_1-*",
		source: "host4",
		destination: "host1",
		trees: [[["host4", "switch4", "switch0", "switch3", "switch1", "host1"]]]
	},
	{
		name: "S2-2",
		packetFilter: "*-type2_2-*",
		source: "host2",
		destination: "host0",
		trees: [[["host2", "switch2", "switch4", "switch0", "host0"]]]
	},
	{
		name: "S2-3",
		packetFilter: "*-type2_3-*",
		source: "host1",
		destination: "host0",
		trees: [[["host1", "switch1", "switch3", "switch4", "switch0", "host0"]]]
	}]
	

