[General]
network = TSN_multipath
sim-time-limit = 100ms
*.macForwardingTableConfigurator.typename = ""
*.*.hasStreamRedundancy = true
*.*.bridging.streamRelay.typename = "StreamRelayLayer"
*.*.bridging.streamCoder.typename = "StreamCoderLayer"
*.streamRedundancyConfigurator.typename = "StreamRedundancyConfigurator"
*.host0.eth[0].bitrate = 1000Mbps
*.switch0.eth[0].bitrate = 1000Mbps
*.switch0.eth[1].bitrate = 2200Mbps
*.switch0.eth[2].bitrate = 1500Mbps
*.switch0.eth[3].bitrate = 1400Mbps
*.switch0.eth[4].bitrate = 1700Mbps
*.switch0.eth[5].bitrate = 2200Mbps
*.switch0.eth[6].bitrate = 2300Mbps
*.switch0.eth[7].bitrate = 1600Mbps
*.switch0.eth[8].bitrate = 1700Mbps
*.switch0.eth[9].bitrate = 1500Mbps
*.switch0.eth[10].bitrate = 1500Mbps
*.switch0.eth[11].bitrate = 1200Mbps
*.host1.eth[0].bitrate = 1000Mbps
*.switch1.eth[0].bitrate = 1000Mbps
*.switch1.eth[1].bitrate = 2200Mbps
*.switch1.eth[2].bitrate = 1300Mbps
*.switch1.eth[3].bitrate = 1800Mbps
*.switch1.eth[4].bitrate = 1300Mbps
*.switch1.eth[5].bitrate = 2200Mbps
*.host2.eth[0].bitrate = 1000Mbps
*.switch2.eth[0].bitrate = 1000Mbps
*.switch2.eth[1].bitrate = 1500Mbps
*.switch2.eth[2].bitrate = 1800Mbps
*.switch2.eth[3].bitrate = 1300Mbps
*.switch2.eth[4].bitrate = 1800Mbps
*.switch2.eth[5].bitrate = 2000Mbps
*.switch2.eth[6].bitrate = 1400Mbps
*.switch2.eth[7].bitrate = 1500Mbps
*.switch2.eth[8].bitrate = 1600Mbps
*.switch2.eth[9].bitrate = 1500Mbps
*.host3.eth[0].bitrate = 1000Mbps
*.switch3.eth[0].bitrate = 1000Mbps
*.switch3.eth[1].bitrate = 1400Mbps
*.switch3.eth[2].bitrate = 1400Mbps
*.switch3.eth[3].bitrate = 1900Mbps
*.switch3.eth[4].bitrate = 1900Mbps
*.switch3.eth[5].bitrate = 2000Mbps
*.switch3.eth[6].bitrate = 2200Mbps
*.switch3.eth[7].bitrate = 1200Mbps
*.switch3.eth[8].bitrate = 1500Mbps
*.switch3.eth[9].bitrate = 1200Mbps
*.switch3.eth[10].bitrate = 2000Mbps
*.switch3.eth[11].bitrate = 1800Mbps
*.switch3.eth[12].bitrate = 2100Mbps
*.host4.eth[0].bitrate = 1000Mbps
*.switch4.eth[0].bitrate = 1000Mbps
*.switch4.eth[1].bitrate = 1700Mbps
*.switch4.eth[2].bitrate = 1900Mbps
*.switch4.eth[3].bitrate = 1600Mbps
*.switch4.eth[4].bitrate = 1500Mbps
*.switch4.eth[5].bitrate = 1500Mbps
*.switch4.eth[6].bitrate = 1600Mbps
*.switch4.eth[7].bitrate = 1900Mbps
*.switch4.eth[8].bitrate = 1200Mbps
*.switch4.eth[9].bitrate = 1200Mbps
*.switch4.eth[10].bitrate = 2300Mbps
*.switch4.eth[11].bitrate = 2000Mbps
*.switch4.eth[12].bitrate = 1900Mbps
*.switch4.eth[13].bitrate = 2300Mbps
*.switch4.eth[14].bitrate = 1700Mbps
*.switch4.eth[15].bitrate = 2000Mbps
*.host5.eth[0].bitrate = 1000Mbps
*.switch5.eth[0].bitrate = 1000Mbps
*.switch5.eth[1].bitrate = 2200Mbps
*.switch5.eth[2].bitrate = 1300Mbps
*.switch5.eth[3].bitrate = 1900Mbps
*.switch5.eth[4].bitrate = 1600Mbps
*.switch5.eth[5].bitrate = 1700Mbps
*.switch5.eth[6].bitrate = 1600Mbps
*.switch5.eth[7].bitrate = 1200Mbps
*.switch5.eth[8].bitrate = 2000Mbps
*.switch5.eth[9].bitrate = 2100Mbps
*.switch5.eth[10].bitrate = 1700Mbps
*.switch5.eth[11].bitrate = 2200Mbps
*.switch5.eth[12].bitrate = 1800Mbps
*.switch5.eth[13].bitrate = 1700Mbps
*.switch5.eth[14].bitrate = 1200Mbps
*.host6.eth[0].bitrate = 1000Mbps
*.switch6.eth[0].bitrate = 1000Mbps
*.switch6.eth[1].bitrate = 2000Mbps
*.switch6.eth[2].bitrate = 1900Mbps
*.switch6.eth[3].bitrate = 2100Mbps
*.switch6.eth[4].bitrate = 1500Mbps
*.switch6.eth[5].bitrate = 1300Mbps
*.switch6.eth[6].bitrate = 1900Mbps
*.switch6.eth[7].bitrate = 2200Mbps
*.switch6.eth[8].bitrate = 1900Mbps
*.switch6.eth[9].bitrate = 2400Mbps
*.switch6.eth[10].bitrate = 1500Mbps
*.host7.eth[0].bitrate = 1000Mbps
*.switch7.eth[0].bitrate = 1000Mbps
*.switch7.eth[1].bitrate = 2300Mbps
*.switch7.eth[2].bitrate = 1800Mbps
*.switch7.eth[3].bitrate = 2200Mbps
*.switch7.eth[4].bitrate = 1200Mbps
*.switch7.eth[5].bitrate = 1900Mbps
*.switch7.eth[6].bitrate = 1500Mbps
*.switch7.eth[7].bitrate = 2000Mbps
*.switch7.eth[8].bitrate = 2300Mbps
*.switch7.eth[9].bitrate = 1800Mbps
*.switch7.eth[10].bitrate = 2400Mbps
*.switch7.eth[11].bitrate = 1200Mbps
*.switch7.eth[12].bitrate = 1300Mbps
*.switch7.eth[13].bitrate = 1700Mbps
*.switch7.eth[14].bitrate = 2300Mbps
*.host8.eth[0].bitrate = 1000Mbps
*.switch8.eth[0].bitrate = 1000Mbps
*.switch8.eth[1].bitrate = 2000Mbps
*.switch8.eth[2].bitrate = 1200Mbps
*.switch8.eth[3].bitrate = 1200Mbps
*.switch8.eth[4].bitrate = 2200Mbps
*.switch8.eth[5].bitrate = 1500Mbps
*.switch8.eth[6].bitrate = 1800Mbps
*.switch8.eth[7].bitrate = 1700Mbps
*.switch8.eth[8].bitrate = 1700Mbps
*.switch8.eth[9].bitrate = 1700Mbps
*.switch8.eth[10].bitrate = 1600Mbps
*.switch8.eth[11].bitrate = 1300Mbps
*.host9.eth[0].bitrate = 1000Mbps
*.switch9.eth[0].bitrate = 1000Mbps
*.switch9.eth[1].bitrate = 1300Mbps
*.switch9.eth[2].bitrate = 1200Mbps
*.switch9.eth[3].bitrate = 2300Mbps
*.switch9.eth[4].bitrate = 1700Mbps
*.switch9.eth[5].bitrate = 1300Mbps
*.switch9.eth[6].bitrate = 1600Mbps
*.switch9.eth[7].bitrate = 1200Mbps
*.switch9.eth[8].bitrate = 2100Mbps
*.switch9.eth[9].bitrate = 2000Mbps
*.switch9.eth[10].bitrate = 1200Mbps
*.switch9.eth[11].bitrate = 1500Mbps
*.switch9.eth[12].bitrate = 2300Mbps
*.switch9.eth[13].bitrate = 1300Mbps
*.host0.numApps = 13
*.host0.app[0].typename = "UdpSinkApp"
*.host0.app[0].io.localPort = 1000
*.host0.app[1].typename = "UdpSourceApp"
*.host0.app[1].io.destAddress = "host9"
*.host0.app[1].source.packetNameFormat = "%M-%m-%c"
*.host0.app[1].source.displayStringTextFormat = "sent %p pk (%l)"
*.host0.app[1].source.packetLength = 12B
*.host0.app[1].source.productionInterval = 1ms
*.host0.app[1].display-name = "type1_1"
*.host0.app[1].io.destPort = 1000
*.host0.app[2].typename = "UdpBasicApp"
*.host0.app[2].destAddresses = "host6"
*.host0.app[2].source.packetNameFormat = "%M-%m-%c"
*.host0.app[2].source.displayStringTextFormat = "sent %p pk (%l)"
*.host0.app[2].messageLength = 22B
*.host0.app[2].sendInterval = 1ms
*.host0.app[2].startTime = 11ms
*.host0.app[2].stopTime = 20ms
*.host0.app[2].display-name = "type2_1"
*.host0.app[2].destPort = 1001
*.host0.app[3].typename = "UdpBasicApp"
*.host0.app[3].destAddresses = "host6"
*.host0.app[3].source.packetNameFormat = "%M-%m-%c"
*.host0.app[3].source.displayStringTextFormat = "sent %p pk (%l)"
*.host0.app[3].messageLength = 22B
*.host0.app[3].sendInterval = 1ms
*.host0.app[3].startTime = 34ms
*.host0.app[3].stopTime = 42ms
*.host0.app[3].display-name = "type2_1"
*.host0.app[3].destPort = 1001
*.host0.app[4].typename = "UdpBasicApp"
*.host0.app[4].destAddresses = "host6"
*.host0.app[4].source.packetNameFormat = "%M-%m-%c"
*.host0.app[4].source.displayStringTextFormat = "sent %p pk (%l)"
*.host0.app[4].messageLength = 22B
*.host0.app[4].sendInterval = 1ms
*.host0.app[4].startTime = 71ms
*.host0.app[4].stopTime = 81ms
*.host0.app[4].display-name = "type2_1"
*.host0.app[4].destPort = 1001
*.host0.app[5].typename = "UdpBasicApp"
*.host0.app[5].destAddresses = "host6"
*.host0.app[5].source.packetNameFormat = "%M-%m-%c"
*.host0.app[5].source.displayStringTextFormat = "sent %p pk (%l)"
*.host0.app[5].messageLength = 22B
*.host0.app[5].sendInterval = 1ms
*.host0.app[5].startTime = 87ms
*.host0.app[5].stopTime = 100ms
*.host0.app[5].display-name = "type2_1"
*.host0.app[5].destPort = 1001
*.host0.app[6].typename = "UdpBasicApp"
*.host0.app[6].destAddresses = "host5"
*.host0.app[6].source.packetNameFormat = "%M-%m-%c"
*.host0.app[6].source.displayStringTextFormat = "sent %p pk (%l)"
*.host0.app[6].messageLength = 23B
*.host0.app[6].sendInterval = 1ms
*.host0.app[6].startTime = 3ms
*.host0.app[6].stopTime = 10ms
*.host0.app[6].display-name = "type2_4"
*.host0.app[6].destPort = 1001
*.host0.app[7].typename = "UdpBasicApp"
*.host0.app[7].destAddresses = "host5"
*.host0.app[7].source.packetNameFormat = "%M-%m-%c"
*.host0.app[7].source.displayStringTextFormat = "sent %p pk (%l)"
*.host0.app[7].messageLength = 23B
*.host0.app[7].sendInterval = 1ms
*.host0.app[7].startTime = 18ms
*.host0.app[7].stopTime = 19ms
*.host0.app[7].display-name = "type2_4"
*.host0.app[7].destPort = 1001
*.host0.app[8].typename = "UdpBasicApp"
*.host0.app[8].destAddresses = "host5"
*.host0.app[8].source.packetNameFormat = "%M-%m-%c"
*.host0.app[8].source.displayStringTextFormat = "sent %p pk (%l)"
*.host0.app[8].messageLength = 23B
*.host0.app[8].sendInterval = 1ms
*.host0.app[8].startTime = 20ms
*.host0.app[8].stopTime = 29ms
*.host0.app[8].display-name = "type2_4"
*.host0.app[8].destPort = 1001
*.host0.app[9].typename = "UdpBasicApp"
*.host0.app[9].destAddresses = "host5"
*.host0.app[9].source.packetNameFormat = "%M-%m-%c"
*.host0.app[9].source.displayStringTextFormat = "sent %p pk (%l)"
*.host0.app[9].messageLength = 23B
*.host0.app[9].sendInterval = 1ms
*.host0.app[9].startTime = 59ms
*.host0.app[9].stopTime = 61ms
*.host0.app[9].display-name = "type2_4"
*.host0.app[9].destPort = 1001
*.host0.app[10].typename = "UdpBasicApp"
*.host0.app[10].destAddresses = "host5"
*.host0.app[10].source.packetNameFormat = "%M-%m-%c"
*.host0.app[10].source.displayStringTextFormat = "sent %p pk (%l)"
*.host0.app[10].messageLength = 23B
*.host0.app[10].sendInterval = 1ms
*.host0.app[10].startTime = 63ms
*.host0.app[10].stopTime = 66ms
*.host0.app[10].display-name = "type2_4"
*.host0.app[10].destPort = 1001
*.host0.app[11].typename = "UdpBasicApp"
*.host0.app[11].destAddresses = "host5"
*.host0.app[11].source.packetNameFormat = "%M-%m-%c"
*.host0.app[11].source.displayStringTextFormat = "sent %p pk (%l)"
*.host0.app[11].messageLength = 23B
*.host0.app[11].sendInterval = 1ms
*.host0.app[11].startTime = 78ms
*.host0.app[11].stopTime = 93ms
*.host0.app[11].display-name = "type2_4"
*.host0.app[11].destPort = 1001
*.host0.app[12].typename = "UdpBasicApp"
*.host0.app[12].destAddresses = "host5"
*.host0.app[12].source.packetNameFormat = "%M-%m-%c"
*.host0.app[12].source.displayStringTextFormat = "sent %p pk (%l)"
*.host0.app[12].messageLength = 23B
*.host0.app[12].sendInterval = 1ms
*.host0.app[12].startTime = 99ms
*.host0.app[12].stopTime = 100ms
*.host0.app[12].display-name = "type2_4"
*.host0.app[12].destPort = 1001
*.host1.numApps = 0
*.host2.numApps = 3
*.host2.app[0].typename = "UdpSourceApp"
*.host2.app[0].io.destAddress = "host0"
*.host2.app[0].source.packetNameFormat = "%M-%m-%c"
*.host2.app[0].source.displayStringTextFormat = "sent %p pk (%l)"
*.host2.app[0].source.packetLength = 21B
*.host2.app[0].source.productionInterval = 1ms
*.host2.app[0].display-name = "type1_0"
*.host2.app[0].io.destPort = 1000
*.host2.app[1].typename = "UdpSourceApp"
*.host2.app[1].io.destAddress = "host4"
*.host2.app[1].source.packetNameFormat = "%M-%m-%c"
*.host2.app[1].source.displayStringTextFormat = "sent %p pk (%l)"
*.host2.app[1].source.packetLength = 15B
*.host2.app[1].source.productionInterval = 1ms
*.host2.app[1].display-name = "type1_2"
*.host2.app[1].io.destPort = 1000
*.host2.app[2].typename = "UdpSourceApp"
*.host2.app[2].io.destAddress = "host5"
*.host2.app[2].source.packetNameFormat = "%M-%m-%c"
*.host2.app[2].source.displayStringTextFormat = "sent %p pk (%l)"
*.host2.app[2].source.packetLength = 14B
*.host2.app[2].source.productionInterval = 1ms
*.host2.app[2].display-name = "type1_3"
*.host2.app[2].io.destPort = 1000
*.host3.numApps = 7
*.host3.app[0].typename = "UdpSinkApp"
*.host3.app[0].io.localPort = 1000
*.host3.app[1].typename = "UdpBasicApp"
*.host3.app[1].destAddresses = "host6"
*.host3.app[1].source.packetNameFormat = "%M-%m-%c"
*.host3.app[1].source.displayStringTextFormat = "sent %p pk (%l)"
*.host3.app[1].messageLength = 20B
*.host3.app[1].sendInterval = 1ms
*.host3.app[1].startTime = 1ms
*.host3.app[1].stopTime = 8ms
*.host3.app[1].display-name = "type2_3"
*.host3.app[1].destPort = 1002
*.host3.app[2].typename = "UdpBasicApp"
*.host3.app[2].destAddresses = "host6"
*.host3.app[2].source.packetNameFormat = "%M-%m-%c"
*.host3.app[2].source.displayStringTextFormat = "sent %p pk (%l)"
*.host3.app[2].messageLength = 20B
*.host3.app[2].sendInterval = 1ms
*.host3.app[2].startTime = 32ms
*.host3.app[2].stopTime = 35ms
*.host3.app[2].display-name = "type2_3"
*.host3.app[2].destPort = 1002
*.host3.app[3].typename = "UdpBasicApp"
*.host3.app[3].destAddresses = "host6"
*.host3.app[3].source.packetNameFormat = "%M-%m-%c"
*.host3.app[3].source.displayStringTextFormat = "sent %p pk (%l)"
*.host3.app[3].messageLength = 20B
*.host3.app[3].sendInterval = 1ms
*.host3.app[3].startTime = 41ms
*.host3.app[3].stopTime = 43ms
*.host3.app[3].display-name = "type2_3"
*.host3.app[3].destPort = 1002
*.host3.app[4].typename = "UdpBasicApp"
*.host3.app[4].destAddresses = "host6"
*.host3.app[4].source.packetNameFormat = "%M-%m-%c"
*.host3.app[4].source.displayStringTextFormat = "sent %p pk (%l)"
*.host3.app[4].messageLength = 20B
*.host3.app[4].sendInterval = 1ms
*.host3.app[4].startTime = 45ms
*.host3.app[4].stopTime = 56ms
*.host3.app[4].display-name = "type2_3"
*.host3.app[4].destPort = 1002
*.host3.app[5].typename = "UdpBasicApp"
*.host3.app[5].destAddresses = "host6"
*.host3.app[5].source.packetNameFormat = "%M-%m-%c"
*.host3.app[5].source.displayStringTextFormat = "sent %p pk (%l)"
*.host3.app[5].messageLength = 20B
*.host3.app[5].sendInterval = 1ms
*.host3.app[5].startTime = 58ms
*.host3.app[5].stopTime = 80ms
*.host3.app[5].display-name = "type2_3"
*.host3.app[5].destPort = 1002
*.host3.app[6].typename = "UdpBasicApp"
*.host3.app[6].destAddresses = "host6"
*.host3.app[6].source.packetNameFormat = "%M-%m-%c"
*.host3.app[6].source.displayStringTextFormat = "sent %p pk (%l)"
*.host3.app[6].messageLength = 20B
*.host3.app[6].sendInterval = 1ms
*.host3.app[6].startTime = 83ms
*.host3.app[6].stopTime = 90ms
*.host3.app[6].display-name = "type2_3"
*.host3.app[6].destPort = 1002
*.host4.numApps = 6
*.host4.app[0].typename = "UdpSinkApp"
*.host4.app[0].io.localPort = 1000
*.host4.app[1].typename = "UdpSourceApp"
*.host4.app[1].io.destAddress = "host9"
*.host4.app[1].source.packetNameFormat = "%M-%m-%c"
*.host4.app[1].source.displayStringTextFormat = "sent %p pk (%l)"
*.host4.app[1].source.packetLength = 12B
*.host4.app[1].source.productionInterval = 1ms
*.host4.app[1].display-name = "type1_4"
*.host4.app[1].io.destPort = 1001
*.host4.app[2].typename = "UdpBasicApp"
*.host4.app[2].destAddresses = "host6"
*.host4.app[2].source.packetNameFormat = "%M-%m-%c"
*.host4.app[2].source.displayStringTextFormat = "sent %p pk (%l)"
*.host4.app[2].messageLength = 24B
*.host4.app[2].sendInterval = 1ms
*.host4.app[2].startTime = 31ms
*.host4.app[2].stopTime = 34ms
*.host4.app[2].display-name = "type2_0"
*.host4.app[2].destPort = 1000
*.host4.app[3].typename = "UdpBasicApp"
*.host4.app[3].destAddresses = "host6"
*.host4.app[3].source.packetNameFormat = "%M-%m-%c"
*.host4.app[3].source.displayStringTextFormat = "sent %p pk (%l)"
*.host4.app[3].messageLength = 24B
*.host4.app[3].sendInterval = 1ms
*.host4.app[3].startTime = 56ms
*.host4.app[3].stopTime = 59ms
*.host4.app[3].display-name = "type2_0"
*.host4.app[3].destPort = 1000
*.host4.app[4].typename = "UdpBasicApp"
*.host4.app[4].destAddresses = "host6"
*.host4.app[4].source.packetNameFormat = "%M-%m-%c"
*.host4.app[4].source.displayStringTextFormat = "sent %p pk (%l)"
*.host4.app[4].messageLength = 24B
*.host4.app[4].sendInterval = 1ms
*.host4.app[4].startTime = 63ms
*.host4.app[4].stopTime = 74ms
*.host4.app[4].display-name = "type2_0"
*.host4.app[4].destPort = 1000
*.host4.app[5].typename = "UdpBasicApp"
*.host4.app[5].destAddresses = "host6"
*.host4.app[5].source.packetNameFormat = "%M-%m-%c"
*.host4.app[5].source.displayStringTextFormat = "sent %p pk (%l)"
*.host4.app[5].messageLength = 24B
*.host4.app[5].sendInterval = 1ms
*.host4.app[5].startTime = 80ms
*.host4.app[5].stopTime = 100ms
*.host4.app[5].display-name = "type2_0"
*.host4.app[5].destPort = 1000
*.host5.numApps = 2
*.host5.app[0].typename = "UdpSinkApp"
*.host5.app[0].io.localPort = 1000
*.host5.app[1].typename = "UdpSinkApp"
*.host5.app[1].io.localPort = 1001
*.host6.numApps = 3
*.host6.app[0].typename = "UdpSinkApp"
*.host6.app[0].io.localPort = 1000
*.host6.app[1].typename = "UdpSinkApp"
*.host6.app[1].io.localPort = 1001
*.host6.app[2].typename = "UdpSinkApp"
*.host6.app[2].io.localPort = 1002
*.host7.numApps = 8
*.host7.app[0].typename = "UdpBasicApp"
*.host7.app[0].destAddresses = "host3"
*.host7.app[0].source.packetNameFormat = "%M-%m-%c"
*.host7.app[0].source.displayStringTextFormat = "sent %p pk (%l)"
*.host7.app[0].messageLength = 17B
*.host7.app[0].sendInterval = 1ms
*.host7.app[0].startTime = 5ms
*.host7.app[0].stopTime = 12ms
*.host7.app[0].display-name = "type2_2"
*.host7.app[0].destPort = 1000
*.host7.app[1].typename = "UdpBasicApp"
*.host7.app[1].destAddresses = "host3"
*.host7.app[1].source.packetNameFormat = "%M-%m-%c"
*.host7.app[1].source.displayStringTextFormat = "sent %p pk (%l)"
*.host7.app[1].messageLength = 17B
*.host7.app[1].sendInterval = 1ms
*.host7.app[1].startTime = 21ms
*.host7.app[1].stopTime = 26ms
*.host7.app[1].display-name = "type2_2"
*.host7.app[1].destPort = 1000
*.host7.app[2].typename = "UdpBasicApp"
*.host7.app[2].destAddresses = "host3"
*.host7.app[2].source.packetNameFormat = "%M-%m-%c"
*.host7.app[2].source.displayStringTextFormat = "sent %p pk (%l)"
*.host7.app[2].messageLength = 17B
*.host7.app[2].sendInterval = 1ms
*.host7.app[2].startTime = 33ms
*.host7.app[2].stopTime = 50ms
*.host7.app[2].display-name = "type2_2"
*.host7.app[2].destPort = 1000
*.host7.app[3].typename = "UdpBasicApp"
*.host7.app[3].destAddresses = "host3"
*.host7.app[3].source.packetNameFormat = "%M-%m-%c"
*.host7.app[3].source.displayStringTextFormat = "sent %p pk (%l)"
*.host7.app[3].messageLength = 17B
*.host7.app[3].sendInterval = 1ms
*.host7.app[3].startTime = 52ms
*.host7.app[3].stopTime = 54ms
*.host7.app[3].display-name = "type2_2"
*.host7.app[3].destPort = 1000
*.host7.app[4].typename = "UdpBasicApp"
*.host7.app[4].destAddresses = "host3"
*.host7.app[4].source.packetNameFormat = "%M-%m-%c"
*.host7.app[4].source.displayStringTextFormat = "sent %p pk (%l)"
*.host7.app[4].messageLength = 17B
*.host7.app[4].sendInterval = 1ms
*.host7.app[4].startTime = 63ms
*.host7.app[4].stopTime = 65ms
*.host7.app[4].display-name = "type2_2"
*.host7.app[4].destPort = 1000
*.host7.app[5].typename = "UdpBasicApp"
*.host7.app[5].destAddresses = "host3"
*.host7.app[5].source.packetNameFormat = "%M-%m-%c"
*.host7.app[5].source.displayStringTextFormat = "sent %p pk (%l)"
*.host7.app[5].messageLength = 17B
*.host7.app[5].sendInterval = 1ms
*.host7.app[5].startTime = 78ms
*.host7.app[5].stopTime = 80ms
*.host7.app[5].display-name = "type2_2"
*.host7.app[5].destPort = 1000
*.host7.app[6].typename = "UdpBasicApp"
*.host7.app[6].destAddresses = "host3"
*.host7.app[6].source.packetNameFormat = "%M-%m-%c"
*.host7.app[6].source.displayStringTextFormat = "sent %p pk (%l)"
*.host7.app[6].messageLength = 17B
*.host7.app[6].sendInterval = 1ms
*.host7.app[6].startTime = 81ms
*.host7.app[6].stopTime = 93ms
*.host7.app[6].display-name = "type2_2"
*.host7.app[6].destPort = 1000
*.host7.app[7].typename = "UdpBasicApp"
*.host7.app[7].destAddresses = "host3"
*.host7.app[7].source.packetNameFormat = "%M-%m-%c"
*.host7.app[7].source.displayStringTextFormat = "sent %p pk (%l)"
*.host7.app[7].messageLength = 17B
*.host7.app[7].sendInterval = 1ms
*.host7.app[7].startTime = 98ms
*.host7.app[7].stopTime = 100ms
*.host7.app[7].display-name = "type2_2"
*.host7.app[7].destPort = 1000
*.host8.numApps = 0
*.host9.numApps = 2
*.host9.app[0].typename = "UdpSinkApp"
*.host9.app[0].io.localPort = 1000
*.host9.app[1].typename = "UdpSinkApp"
*.host9.app[1].io.localPort = 1001
*.streamRedundancyConfigurator.configuration = [
	{
		name: "S1-0",
		packetFilter: "*-type1_0-*",
		source: "host2",
		destination: "host0",
		trees: [[["host2", "switch2", "switch5", "switch0", "host0"]]]
	},
	{
		name: "S1-1",
		packetFilter: "*-type1_1-*",
		source: "host0",
		destination: "host9",
		trees: [[["host0", "switch0", "switch1", "switch9", "host9"]]]
	},
	{
		name: "S1-2",
		packetFilter: "*-type1_2-*",
		source: "host2",
		destination: "host4",
		trees: [[["host2", "switch2", "switch5", "switch4", "host4"]]]
	},
	{
		name: "S1-3",
		packetFilter: "*-type1_3-*",
		source: "host2",
		destination: "host5",
		trees: [[["host2", "switch2", "switch5", "host5"]]]
	},
	{
		name: "S1-4",
		packetFilter: "*-type1_4-*",
		source: "host4",
		destination: "host9",
		trees: [[["host4", "switch4", "switch9", "host9"]]]
	},
	{
		name: "S2-0",
		packetFilter: "*-type2_0-*",
		source: "host4",
		destination: "host6",
		trees: [[["host4", "switch4", "switch6", "host6"]]]
	},
	{
		name: "S2-1",
		packetFilter: "*-type2_1-*",
		source: "host0",
		destination: "host6",
		trees: [[["host0", "switch0", "switch4", "switch3", "switch5", "switch6", "host6"]]]
	},
	{
		name: "S2-2",
		packetFilter: "*-type2_2-*",
		source: "host7",
		destination: "host3",
		trees: [[["host7", "switch7", "switch0", "switch4", "switch3", "host3"]]]
	},
	{
		name: "S2-3",
		packetFilter: "*-type2_3-*",
		source: "host3",
		destination: "host6",
		trees: [[["host3", "switch3", "switch5", "switch6", "host6"]]]
	},
	{
		name: "S2-4",
		packetFilter: "*-type2_4-*",
		source: "host0",
		destination: "host5",
		trees: [[["host0", "switch0", "switch4", "switch3", "switch5", "host5"]]]
	}]
	

