[General]
network = TSN_multipath
sim-time-limit = 10ms
*.macForwardingTableConfigurator.typename = ""
*.*.hasStreamRedundancy = true
*.*.bridging.streamRelay.typename = "StreamRelayLayer"
*.*.bridging.streamCoder.typename = "StreamCoderLayer"
*.streamRedundancyConfigurator.typename = "StreamRedundancyConfigurator"
*.host0.eth[0].bitrate = 1000Mbps
*.switch0.eth[0].bitrate = 1000Mbps
*.switch0.eth[1].bitrate = 1900Mbps
*.switch0.eth[2].bitrate = 1700Mbps
*.switch0.eth[3].bitrate = 2200Mbps
*.switch0.eth[4].bitrate = 2100Mbps
*.switch0.eth[5].bitrate = 2400Mbps
*.switch0.eth[6].bitrate = 2000Mbps
*.switch0.eth[7].bitrate = 2300Mbps
*.switch0.eth[8].bitrate = 1300Mbps
*.switch0.eth[9].bitrate = 1400Mbps
*.host1.eth[0].bitrate = 1000Mbps
*.switch1.eth[0].bitrate = 1000Mbps
*.switch1.eth[1].bitrate = 2100Mbps
*.switch1.eth[2].bitrate = 1800Mbps
*.switch1.eth[3].bitrate = 1700Mbps
*.switch1.eth[4].bitrate = 2300Mbps
*.switch1.eth[5].bitrate = 2300Mbps
*.switch1.eth[6].bitrate = 2200Mbps
*.switch1.eth[7].bitrate = 1900Mbps
*.switch1.eth[8].bitrate = 1600Mbps
*.switch1.eth[9].bitrate = 1700Mbps
*.switch1.eth[10].bitrate = 2200Mbps
*.switch1.eth[11].bitrate = 2300Mbps
*.switch1.eth[12].bitrate = 2200Mbps
*.host2.eth[0].bitrate = 1000Mbps
*.switch2.eth[0].bitrate = 1000Mbps
*.switch2.eth[1].bitrate = 2400Mbps
*.switch2.eth[2].bitrate = 1900Mbps
*.switch2.eth[3].bitrate = 1600Mbps
*.switch2.eth[4].bitrate = 1900Mbps
*.switch2.eth[5].bitrate = 2000Mbps
*.switch2.eth[6].bitrate = 1300Mbps
*.switch2.eth[7].bitrate = 1200Mbps
*.switch2.eth[8].bitrate = 1700Mbps
*.switch2.eth[9].bitrate = 1600Mbps
*.switch2.eth[10].bitrate = 1700Mbps
*.switch2.eth[11].bitrate = 1400Mbps
*.switch2.eth[12].bitrate = 1600Mbps
*.host3.eth[0].bitrate = 1000Mbps
*.switch3.eth[0].bitrate = 1000Mbps
*.switch3.eth[1].bitrate = 1800Mbps
*.switch3.eth[2].bitrate = 1600Mbps
*.switch3.eth[3].bitrate = 1600Mbps
*.switch3.eth[4].bitrate = 2400Mbps
*.switch3.eth[5].bitrate = 1700Mbps
*.switch3.eth[6].bitrate = 1300Mbps
*.switch3.eth[7].bitrate = 2400Mbps
*.switch3.eth[8].bitrate = 2400Mbps
*.switch3.eth[9].bitrate = 1200Mbps
*.switch3.eth[10].bitrate = 1500Mbps
*.host4.eth[0].bitrate = 1000Mbps
*.switch4.eth[0].bitrate = 1000Mbps
*.switch4.eth[1].bitrate = 1700Mbps
*.switch4.eth[2].bitrate = 1900Mbps
*.switch4.eth[3].bitrate = 2400Mbps
*.switch4.eth[4].bitrate = 1700Mbps
*.switch4.eth[5].bitrate = 1200Mbps
*.switch4.eth[6].bitrate = 1300Mbps
*.switch4.eth[7].bitrate = 2100Mbps
*.host5.eth[0].bitrate = 1000Mbps
*.switch5.eth[0].bitrate = 1000Mbps
*.switch5.eth[1].bitrate = 2300Mbps
*.switch5.eth[2].bitrate = 1700Mbps
*.switch5.eth[3].bitrate = 1700Mbps
*.switch5.eth[4].bitrate = 1600Mbps
*.switch5.eth[5].bitrate = 1600Mbps
*.switch5.eth[6].bitrate = 1500Mbps
*.switch5.eth[7].bitrate = 2400Mbps
*.switch5.eth[8].bitrate = 1800Mbps
*.switch5.eth[9].bitrate = 1600Mbps
*.host6.eth[0].bitrate = 1000Mbps
*.switch6.eth[0].bitrate = 1000Mbps
*.switch6.eth[1].bitrate = 1900Mbps
*.switch6.eth[2].bitrate = 2300Mbps
*.switch6.eth[3].bitrate = 1300Mbps
*.switch6.eth[4].bitrate = 2000Mbps
*.switch6.eth[5].bitrate = 1700Mbps
*.switch6.eth[6].bitrate = 2400Mbps
*.switch6.eth[7].bitrate = 1200Mbps
*.switch6.eth[8].bitrate = 1500Mbps
*.switch6.eth[9].bitrate = 2400Mbps
*.switch6.eth[10].bitrate = 2100Mbps
*.switch6.eth[11].bitrate = 1200Mbps
*.switch6.eth[12].bitrate = 1500Mbps
*.switch6.eth[13].bitrate = 1700Mbps
*.switch6.eth[14].bitrate = 2400Mbps
*.host7.eth[0].bitrate = 1000Mbps
*.switch7.eth[0].bitrate = 1000Mbps
*.switch7.eth[1].bitrate = 2200Mbps
*.switch7.eth[2].bitrate = 2000Mbps
*.switch7.eth[3].bitrate = 2400Mbps
*.switch7.eth[4].bitrate = 2300Mbps
*.switch7.eth[5].bitrate = 2200Mbps
*.switch7.eth[6].bitrate = 1400Mbps
*.switch7.eth[7].bitrate = 1300Mbps
*.switch7.eth[8].bitrate = 2400Mbps
*.switch7.eth[9].bitrate = 1500Mbps
*.switch7.eth[10].bitrate = 1600Mbps
*.switch7.eth[11].bitrate = 2200Mbps
*.switch7.eth[12].bitrate = 1200Mbps
*.switch7.eth[13].bitrate = 2300Mbps
*.host8.eth[0].bitrate = 1000Mbps
*.switch8.eth[0].bitrate = 1000Mbps
*.switch8.eth[1].bitrate = 1700Mbps
*.switch8.eth[2].bitrate = 1300Mbps
*.switch8.eth[3].bitrate = 1600Mbps
*.switch8.eth[4].bitrate = 2100Mbps
*.switch8.eth[5].bitrate = 1600Mbps
*.switch8.eth[6].bitrate = 1300Mbps
*.switch8.eth[7].bitrate = 2300Mbps
*.switch8.eth[8].bitrate = 1600Mbps
*.switch8.eth[9].bitrate = 1200Mbps
*.switch8.eth[10].bitrate = 1800Mbps
*.switch8.eth[11].bitrate = 1700Mbps
*.switch8.eth[12].bitrate = 1200Mbps
*.switch8.eth[13].bitrate = 2200Mbps
*.host9.eth[0].bitrate = 1000Mbps
*.switch9.eth[0].bitrate = 1000Mbps
*.switch9.eth[1].bitrate = 2200Mbps
*.switch9.eth[2].bitrate = 1200Mbps
*.switch9.eth[3].bitrate = 2400Mbps
*.switch9.eth[4].bitrate = 1200Mbps
*.switch9.eth[5].bitrate = 2200Mbps
*.switch9.eth[6].bitrate = 1400Mbps
*.switch9.eth[7].bitrate = 2200Mbps
*.switch9.eth[8].bitrate = 1500Mbps
*.switch9.eth[9].bitrate = 2100Mbps
*.switch9.eth[10].bitrate = 1600Mbps
*.switch9.eth[11].bitrate = 2400Mbps
*.switch9.eth[12].bitrate = 2300Mbps
*.switch9.eth[13].bitrate = 2200Mbps
*.host0.numApps = 16
*.host0.app[0].typename = "UdpSourceApp"
*.host0.app[0].io.destAddress = "host1"
*.host0.app[0].source.packetNameFormat = "%M-%m-%c"
*.host0.app[0].source.displayStringTextFormat = "sent %p pk (%l)"
*.host0.app[0].source.packetLength = 12B
*.host0.app[0].source.productionInterval = 1ms
*.host0.app[0].display-name = "type1_3"
*.host0.app[0].io.destPort = 1001
*.host0.app[1].typename = "UdpBasicApp"
*.host0.app[1].destAddresses = "host4"
*.host0.app[1].source.packetNameFormat = "%M-%m-%c"
*.host0.app[1].source.displayStringTextFormat = "sent %p pk (%l)"
*.host0.app[1].messageLength = 12B
*.host0.app[1].sendInterval = 1ms
*.host0.app[1].startTime = 0us
*.host0.app[1].stopTime = 200us
*.host0.app[1].display-name = "type2_0"
*.host0.app[1].destPort = 1000
*.host0.app[2].typename = "UdpBasicApp"
*.host0.app[2].destAddresses = "host4"
*.host0.app[2].source.packetNameFormat = "%M-%m-%c"
*.host0.app[2].source.displayStringTextFormat = "sent %p pk (%l)"
*.host0.app[2].messageLength = 12B
*.host0.app[2].sendInterval = 1ms
*.host0.app[2].startTime = 2300us
*.host0.app[2].stopTime = 3000us
*.host0.app[2].display-name = "type2_0"
*.host0.app[2].destPort = 1000
*.host0.app[3].typename = "UdpBasicApp"
*.host0.app[3].destAddresses = "host4"
*.host0.app[3].source.packetNameFormat = "%M-%m-%c"
*.host0.app[3].source.displayStringTextFormat = "sent %p pk (%l)"
*.host0.app[3].messageLength = 12B
*.host0.app[3].sendInterval = 1ms
*.host0.app[3].startTime = 4500us
*.host0.app[3].stopTime = 5000us
*.host0.app[3].display-name = "type2_0"
*.host0.app[3].destPort = 1000
*.host0.app[4].typename = "UdpBasicApp"
*.host0.app[4].destAddresses = "host4"
*.host0.app[4].source.packetNameFormat = "%M-%m-%c"
*.host0.app[4].source.displayStringTextFormat = "sent %p pk (%l)"
*.host0.app[4].messageLength = 12B
*.host0.app[4].sendInterval = 1ms
*.host0.app[4].startTime = 5300us
*.host0.app[4].stopTime = 5400us
*.host0.app[4].display-name = "type2_0"
*.host0.app[4].destPort = 1000
*.host0.app[5].typename = "UdpBasicApp"
*.host0.app[5].destAddresses = "host4"
*.host0.app[5].source.packetNameFormat = "%M-%m-%c"
*.host0.app[5].source.displayStringTextFormat = "sent %p pk (%l)"
*.host0.app[5].messageLength = 12B
*.host0.app[5].sendInterval = 1ms
*.host0.app[5].startTime = 5700us
*.host0.app[5].stopTime = 6700us
*.host0.app[5].display-name = "type2_0"
*.host0.app[5].destPort = 1000
*.host0.app[6].typename = "UdpBasicApp"
*.host0.app[6].destAddresses = "host4"
*.host0.app[6].source.packetNameFormat = "%M-%m-%c"
*.host0.app[6].source.displayStringTextFormat = "sent %p pk (%l)"
*.host0.app[6].messageLength = 12B
*.host0.app[6].sendInterval = 1ms
*.host0.app[6].startTime = 7000us
*.host0.app[6].stopTime = 7100us
*.host0.app[6].display-name = "type2_0"
*.host0.app[6].destPort = 1000
*.host0.app[7].typename = "UdpBasicApp"
*.host0.app[7].destAddresses = "host4"
*.host0.app[7].source.packetNameFormat = "%M-%m-%c"
*.host0.app[7].source.displayStringTextFormat = "sent %p pk (%l)"
*.host0.app[7].messageLength = 12B
*.host0.app[7].sendInterval = 1ms
*.host0.app[7].startTime = 7500us
*.host0.app[7].stopTime = 8000us
*.host0.app[7].display-name = "type2_0"
*.host0.app[7].destPort = 1000
*.host0.app[8].typename = "UdpBasicApp"
*.host0.app[8].destAddresses = "host4"
*.host0.app[8].source.packetNameFormat = "%M-%m-%c"
*.host0.app[8].source.displayStringTextFormat = "sent %p pk (%l)"
*.host0.app[8].messageLength = 12B
*.host0.app[8].sendInterval = 1ms
*.host0.app[8].startTime = 8400us
*.host0.app[8].stopTime = 8500us
*.host0.app[8].display-name = "type2_0"
*.host0.app[8].destPort = 1000
*.host0.app[9].typename = "UdpBasicApp"
*.host0.app[9].destAddresses = "host4"
*.host0.app[9].source.packetNameFormat = "%M-%m-%c"
*.host0.app[9].source.displayStringTextFormat = "sent %p pk (%l)"
*.host0.app[9].messageLength = 12B
*.host0.app[9].sendInterval = 1ms
*.host0.app[9].startTime = 8600us
*.host0.app[9].stopTime = 9000us
*.host0.app[9].display-name = "type2_0"
*.host0.app[9].destPort = 1000
*.host0.app[10].typename = "UdpBasicApp"
*.host0.app[10].destAddresses = "host4"
*.host0.app[10].source.packetNameFormat = "%M-%m-%c"
*.host0.app[10].source.displayStringTextFormat = "sent %p pk (%l)"
*.host0.app[10].messageLength = 12B
*.host0.app[10].sendInterval = 1ms
*.host0.app[10].startTime = 9800us
*.host0.app[10].stopTime = 9900us
*.host0.app[10].display-name = "type2_0"
*.host0.app[10].destPort = 1000
*.host0.app[11].typename = "UdpBasicApp"
*.host0.app[11].destAddresses = "host6"
*.host0.app[11].source.packetNameFormat = "%M-%m-%c"
*.host0.app[11].source.displayStringTextFormat = "sent %p pk (%l)"
*.host0.app[11].messageLength = 13B
*.host0.app[11].sendInterval = 1ms
*.host0.app[11].startTime = 300us
*.host0.app[11].stopTime = 500us
*.host0.app[11].display-name = "type2_1"
*.host0.app[11].destPort = 1000
*.host0.app[12].typename = "UdpBasicApp"
*.host0.app[12].destAddresses = "host6"
*.host0.app[12].source.packetNameFormat = "%M-%m-%c"
*.host0.app[12].source.displayStringTextFormat = "sent %p pk (%l)"
*.host0.app[12].messageLength = 13B
*.host0.app[12].sendInterval = 1ms
*.host0.app[12].startTime = 1300us
*.host0.app[12].stopTime = 1600us
*.host0.app[12].display-name = "type2_1"
*.host0.app[12].destPort = 1000
*.host0.app[13].typename = "UdpBasicApp"
*.host0.app[13].destAddresses = "host6"
*.host0.app[13].source.packetNameFormat = "%M-%m-%c"
*.host0.app[13].source.displayStringTextFormat = "sent %p pk (%l)"
*.host0.app[13].messageLength = 13B
*.host0.app[13].sendInterval = 1ms
*.host0.app[13].startTime = 4900us
*.host0.app[13].stopTime = 5600us
*.host0.app[13].display-name = "type2_1"
*.host0.app[13].destPort = 1000
*.host0.app[14].typename = "UdpBasicApp"
*.host0.app[14].destAddresses = "host6"
*.host0.app[14].source.packetNameFormat = "%M-%m-%c"
*.host0.app[14].source.displayStringTextFormat = "sent %p pk (%l)"
*.host0.app[14].messageLength = 13B
*.host0.app[14].sendInterval = 1ms
*.host0.app[14].startTime = 6100us
*.host0.app[14].stopTime = 8800us
*.host0.app[14].display-name = "type2_1"
*.host0.app[14].destPort = 1000
*.host0.app[15].typename = "UdpBasicApp"
*.host0.app[15].destAddresses = "host6"
*.host0.app[15].source.packetNameFormat = "%M-%m-%c"
*.host0.app[15].source.displayStringTextFormat = "sent %p pk (%l)"
*.host0.app[15].messageLength = 13B
*.host0.app[15].sendInterval = 1ms
*.host0.app[15].startTime = 8900us
*.host0.app[15].stopTime = 9100us
*.host0.app[15].display-name = "type2_1"
*.host0.app[15].destPort = 1000
*.host1.numApps = 11
*.host1.app[0].typename = "UdpSinkApp"
*.host1.app[0].io.localPort = 1000
*.host1.app[1].typename = "UdpSinkApp"
*.host1.app[1].io.localPort = 1001
*.host1.app[2].typename = "UdpSinkApp"
*.host1.app[2].io.localPort = 1002
*.host1.app[3].typename = "UdpBasicApp"
*.host1.app[3].destAddresses = "host6"
*.host1.app[3].source.packetNameFormat = "%M-%m-%c"
*.host1.app[3].source.displayStringTextFormat = "sent %p pk (%l)"
*.host1.app[3].messageLength = 22B
*.host1.app[3].sendInterval = 1ms
*.host1.app[3].startTime = 500us
*.host1.app[3].stopTime = 900us
*.host1.app[3].display-name = "type2_3"
*.host1.app[3].destPort = 1001
*.host1.app[4].typename = "UdpBasicApp"
*.host1.app[4].destAddresses = "host6"
*.host1.app[4].source.packetNameFormat = "%M-%m-%c"
*.host1.app[4].source.displayStringTextFormat = "sent %p pk (%l)"
*.host1.app[4].messageLength = 22B
*.host1.app[4].sendInterval = 1ms
*.host1.app[4].startTime = 1200us
*.host1.app[4].stopTime = 1800us
*.host1.app[4].display-name = "type2_3"
*.host1.app[4].destPort = 1001
*.host1.app[5].typename = "UdpBasicApp"
*.host1.app[5].destAddresses = "host6"
*.host1.app[5].source.packetNameFormat = "%M-%m-%c"
*.host1.app[5].source.displayStringTextFormat = "sent %p pk (%l)"
*.host1.app[5].messageLength = 22B
*.host1.app[5].sendInterval = 1ms
*.host1.app[5].startTime = 2000us
*.host1.app[5].stopTime = 3000us
*.host1.app[5].display-name = "type2_3"
*.host1.app[5].destPort = 1001
*.host1.app[6].typename = "UdpBasicApp"
*.host1.app[6].destAddresses = "host6"
*.host1.app[6].source.packetNameFormat = "%M-%m-%c"
*.host1.app[6].source.displayStringTextFormat = "sent %p pk (%l)"
*.host1.app[6].messageLength = 22B
*.host1.app[6].sendInterval = 1ms
*.host1.app[6].startTime = 3400us
*.host1.app[6].stopTime = 4000us
*.host1.app[6].display-name = "type2_3"
*.host1.app[6].destPort = 1001
*.host1.app[7].typename = "UdpBasicApp"
*.host1.app[7].destAddresses = "host6"
*.host1.app[7].source.packetNameFormat = "%M-%m-%c"
*.host1.app[7].source.displayStringTextFormat = "sent %p pk (%l)"
*.host1.app[7].messageLength = 22B
*.host1.app[7].sendInterval = 1ms
*.host1.app[7].startTime = 4400us
*.host1.app[7].stopTime = 5400us
*.host1.app[7].display-name = "type2_3"
*.host1.app[7].destPort = 1001
*.host1.app[8].typename = "UdpBasicApp"
*.host1.app[8].destAddresses = "host6"
*.host1.app[8].source.packetNameFormat = "%M-%m-%c"
*.host1.app[8].source.displayStringTextFormat = "sent %p pk (%l)"
*.host1.app[8].messageLength = 22B
*.host1.app[8].sendInterval = 1ms
*.host1.app[8].startTime = 6000us
*.host1.app[8].stopTime = 6400us
*.host1.app[8].display-name = "type2_3"
*.host1.app[8].destPort = 1001
*.host1.app[9].typename = "UdpBasicApp"
*.host1.app[9].destAddresses = "host6"
*.host1.app[9].source.packetNameFormat = "%M-%m-%c"
*.host1.app[9].source.displayStringTextFormat = "sent %p pk (%l)"
*.host1.app[9].messageLength = 22B
*.host1.app[9].sendInterval = 1ms
*.host1.app[9].startTime = 6900us
*.host1.app[9].stopTime = 7600us
*.host1.app[9].display-name = "type2_3"
*.host1.app[9].destPort = 1001
*.host1.app[10].typename = "UdpBasicApp"
*.host1.app[10].destAddresses = "host6"
*.host1.app[10].source.packetNameFormat = "%M-%m-%c"
*.host1.app[10].source.displayStringTextFormat = "sent %p pk (%l)"
*.host1.app[10].messageLength = 22B
*.host1.app[10].sendInterval = 1ms
*.host1.app[10].startTime = 7700us
*.host1.app[10].stopTime = 9700us
*.host1.app[10].display-name = "type2_3"
*.host1.app[10].destPort = 1001
*.host2.numApps = 13
*.host2.app[0].typename = "UdpSourceApp"
*.host2.app[0].io.destAddress = "host5"
*.host2.app[0].source.packetNameFormat = "%M-%m-%c"
*.host2.app[0].source.displayStringTextFormat = "sent %p pk (%l)"
*.host2.app[0].source.packetLength = 13B
*.host2.app[0].source.productionInterval = 1ms
*.host2.app[0].display-name = "type1_0"
*.host2.app[0].io.destPort = 1000
*.host2.app[1].typename = "UdpSourceApp"
*.host2.app[1].io.destAddress = "host7"
*.host2.app[1].source.packetNameFormat = "%M-%m-%c"
*.host2.app[1].source.displayStringTextFormat = "sent %p pk (%l)"
*.host2.app[1].source.packetLength = 17B
*.host2.app[1].source.productionInterval = 1ms
*.host2.app[1].display-name = "type1_2"
*.host2.app[1].io.destPort = 1000
*.host2.app[2].typename = "UdpBasicApp"
*.host2.app[2].destAddresses = "host4"
*.host2.app[2].source.packetNameFormat = "%M-%m-%c"
*.host2.app[2].source.displayStringTextFormat = "sent %p pk (%l)"
*.host2.app[2].messageLength = 13B
*.host2.app[2].sendInterval = 1ms
*.host2.app[2].startTime = 800us
*.host2.app[2].stopTime = 1800us
*.host2.app[2].display-name = "type2_2"
*.host2.app[2].destPort = 1001
*.host2.app[3].typename = "UdpBasicApp"
*.host2.app[3].destAddresses = "host4"
*.host2.app[3].source.packetNameFormat = "%M-%m-%c"
*.host2.app[3].source.displayStringTextFormat = "sent %p pk (%l)"
*.host2.app[3].messageLength = 13B
*.host2.app[3].sendInterval = 1ms
*.host2.app[3].startTime = 2300us
*.host2.app[3].stopTime = 3000us
*.host2.app[3].display-name = "type2_2"
*.host2.app[3].destPort = 1001
*.host2.app[4].typename = "UdpBasicApp"
*.host2.app[4].destAddresses = "host4"
*.host2.app[4].source.packetNameFormat = "%M-%m-%c"
*.host2.app[4].source.displayStringTextFormat = "sent %p pk (%l)"
*.host2.app[4].messageLength = 13B
*.host2.app[4].sendInterval = 1ms
*.host2.app[4].startTime = 4400us
*.host2.app[4].stopTime = 4700us
*.host2.app[4].display-name = "type2_2"
*.host2.app[4].destPort = 1001
*.host2.app[5].typename = "UdpBasicApp"
*.host2.app[5].destAddresses = "host4"
*.host2.app[5].source.packetNameFormat = "%M-%m-%c"
*.host2.app[5].source.displayStringTextFormat = "sent %p pk (%l)"
*.host2.app[5].messageLength = 13B
*.host2.app[5].sendInterval = 1ms
*.host2.app[5].startTime = 5500us
*.host2.app[5].stopTime = 6100us
*.host2.app[5].display-name = "type2_2"
*.host2.app[5].destPort = 1001
*.host2.app[6].typename = "UdpBasicApp"
*.host2.app[6].destAddresses = "host4"
*.host2.app[6].source.packetNameFormat = "%M-%m-%c"
*.host2.app[6].source.displayStringTextFormat = "sent %p pk (%l)"
*.host2.app[6].messageLength = 13B
*.host2.app[6].sendInterval = 1ms
*.host2.app[6].startTime = 7900us
*.host2.app[6].stopTime = 8200us
*.host2.app[6].display-name = "type2_2"
*.host2.app[6].destPort = 1001
*.host2.app[7].typename = "UdpBasicApp"
*.host2.app[7].destAddresses = "host4"
*.host2.app[7].source.packetNameFormat = "%M-%m-%c"
*.host2.app[7].source.displayStringTextFormat = "sent %p pk (%l)"
*.host2.app[7].messageLength = 13B
*.host2.app[7].sendInterval = 1ms
*.host2.app[7].startTime = 8400us
*.host2.app[7].stopTime = 8900us
*.host2.app[7].display-name = "type2_2"
*.host2.app[7].destPort = 1001
*.host2.app[8].typename = "UdpBasicApp"
*.host2.app[8].destAddresses = "host7"
*.host2.app[8].source.packetNameFormat = "%M-%m-%c"
*.host2.app[8].source.displayStringTextFormat = "sent %p pk (%l)"
*.host2.app[8].messageLength = 23B
*.host2.app[8].sendInterval = 1ms
*.host2.app[8].startTime = 0us
*.host2.app[8].stopTime = 400us
*.host2.app[8].display-name = "type2_4"
*.host2.app[8].destPort = 1001
*.host2.app[9].typename = "UdpBasicApp"
*.host2.app[9].destAddresses = "host7"
*.host2.app[9].source.packetNameFormat = "%M-%m-%c"
*.host2.app[9].source.displayStringTextFormat = "sent %p pk (%l)"
*.host2.app[9].messageLength = 23B
*.host2.app[9].sendInterval = 1ms
*.host2.app[9].startTime = 1700us
*.host2.app[9].stopTime = 2100us
*.host2.app[9].display-name = "type2_4"
*.host2.app[9].destPort = 1001
*.host2.app[10].typename = "UdpBasicApp"
*.host2.app[10].destAddresses = "host7"
*.host2.app[10].source.packetNameFormat = "%M-%m-%c"
*.host2.app[10].source.displayStringTextFormat = "sent %p pk (%l)"
*.host2.app[10].messageLength = 23B
*.host2.app[10].sendInterval = 1ms
*.host2.app[10].startTime = 2600us
*.host2.app[10].stopTime = 4000us
*.host2.app[10].display-name = "type2_4"
*.host2.app[10].destPort = 1001
*.host2.app[11].typename = "UdpBasicApp"
*.host2.app[11].destAddresses = "host7"
*.host2.app[11].source.packetNameFormat = "%M-%m-%c"
*.host2.app[11].source.displayStringTextFormat = "sent %p pk (%l)"
*.host2.app[11].messageLength = 23B
*.host2.app[11].sendInterval = 1ms
*.host2.app[11].startTime = 5400us
*.host2.app[11].stopTime = 6300us
*.host2.app[11].display-name = "type2_4"
*.host2.app[11].destPort = 1001
*.host2.app[12].typename = "UdpBasicApp"
*.host2.app[12].destAddresses = "host7"
*.host2.app[12].source.packetNameFormat = "%M-%m-%c"
*.host2.app[12].source.displayStringTextFormat = "sent %p pk (%l)"
*.host2.app[12].messageLength = 23B
*.host2.app[12].sendInterval = 1ms
*.host2.app[12].startTime = 6700us
*.host2.app[12].stopTime = 10000us
*.host2.app[12].display-name = "type2_4"
*.host2.app[12].destPort = 1001
*.host3.numApps = 0
*.host4.numApps = 2
*.host4.app[0].typename = "UdpSinkApp"
*.host4.app[0].io.localPort = 1000
*.host4.app[1].typename = "UdpSinkApp"
*.host4.app[1].io.localPort = 1001
*.host5.numApps = 2
*.host5.app[0].typename = "UdpSinkApp"
*.host5.app[0].io.localPort = 1000
*.host5.app[1].typename = "UdpSourceApp"
*.host5.app[1].io.destAddress = "host1"
*.host5.app[1].source.packetNameFormat = "%M-%m-%c"
*.host5.app[1].source.displayStringTextFormat = "sent %p pk (%l)"
*.host5.app[1].source.packetLength = 12B
*.host5.app[1].source.productionInterval = 1ms
*.host5.app[1].display-name = "type1_1"
*.host5.app[1].io.destPort = 1000
*.host6.numApps = 2
*.host6.app[0].typename = "UdpSinkApp"
*.host6.app[0].io.localPort = 1000
*.host6.app[1].typename = "UdpSinkApp"
*.host6.app[1].io.localPort = 1001
*.host7.numApps = 2
*.host7.app[0].typename = "UdpSinkApp"
*.host7.app[0].io.localPort = 1000
*.host7.app[1].typename = "UdpSinkApp"
*.host7.app[1].io.localPort = 1001
*.host8.numApps = 0
*.host9.numApps = 1
*.host9.app[0].typename = "UdpSourceApp"
*.host9.app[0].io.destAddress = "host1"
*.host9.app[0].source.packetNameFormat = "%M-%m-%c"
*.host9.app[0].source.displayStringTextFormat = "sent %p pk (%l)"
*.host9.app[0].source.packetLength = 13B
*.host9.app[0].source.productionInterval = 1ms
*.host9.app[0].display-name = "type1_4"
*.host9.app[0].io.destPort = 1002
*.streamRedundancyConfigurator.configuration = [
	{
		name: "S1-0",
		packetFilter: "*-type1_0-*",
		source: "host2",
		destination: "host5",
		trees: [[["host2",
	 "switch2",
	 "switch0",
	 "switch9",
	 "switch6",
	 "switch7",
	 "switch5",
	 "host5"]]]
	},
	{
		name: "S1-1",
		packetFilter: "*-type1_1-*",
		source: "host5",
		destination: "host1",
		trees: [[["host5",
	 "switch5",
	 "switch2",
	 "switch0",
	 "switch9",
	 "switch6",
	 "switch7",
	 "switch1",
	 "host1"]]]
	},
	{
		name: "S1-2",
		packetFilter: "*-type1_2-*",
		source: "host2",
		destination: "host7",
		trees: [[["host2", "switch2", "switch0", "switch9", "switch6", "switch7", "host7"]]]
	},
	{
		name: "S1-3",
		packetFilter: "*-type1_3-*",
		source: "host0",
		destination: "host1",
		trees: [[["host0", "switch0", "switch9", "switch6", "switch7", "switch1", "host1"]]]
	},
	{
		name: "S1-4",
		packetFilter: "*-type1_4-*",
		source: "host9",
		destination: "host1",
		trees: [[["host9", "switch9", "switch6", "switch7", "switch1", "host1"]]]
	},
	{
		name: "S2-0",
		packetFilter: "*-type2_0-*",
		source: "host0",
		destination: "host4",
		trees: [[["host0", "switch0", "switch9", "switch1", "switch3", "switch4", "host4"]]]
	},
	{
		name: "S2-1",
		packetFilter: "*-type2_1-*",
		source: "host0",
		destination: "host6",
		trees: [[["host0", "switch0", "switch9", "switch1", "switch6", "host6"]]]
	},
	{
		name: "S2-2",
		packetFilter: "*-type2_2-*",
		source: "host2",
		destination: "host4",
		trees: [[["host2",
	 "switch2",
	 "switch7",
	 "switch5",
	 "switch1",
	 "switch3",
	 "switch4",
	 "host4"]]]
	},
	{
		name: "S2-3",
		packetFilter: "*-type2_3-*",
		source: "host1",
		destination: "host6",
		trees: [[["host1", "switch1", "switch6", "host6"]]]
	},
	{
		name: "S2-4",
		packetFilter: "*-type2_4-*",
		source: "host2",
		destination: "host7",
		trees: [[["host2", "switch2", "switch7", "host7"]]]
	}]
	

