[General]
network = TSN_multipath
sim-time-limit = 100ms
*.macForwardingTableConfigurator.typename = ""
*.*.hasStreamRedundancy = true
*.*.bridging.streamRelay.typename = "StreamRelayLayer"
*.*.bridging.streamCoder.typename = "StreamCoderLayer"
*.streamRedundancyConfigurator.typename = "StreamRedundancyConfigurator"
*.host0.eth[0].bitrate = 1000Mbps
*.switch0.eth[0].bitrate = 1000Mbps
*.switch0.eth[1].bitrate = 1900Mbps
*.switch0.eth[2].bitrate = 1400Mbps
*.switch0.eth[3].bitrate = 1900Mbps
*.switch0.eth[4].bitrate = 1300Mbps
*.switch0.eth[5].bitrate = 1200Mbps
*.switch0.eth[6].bitrate = 1200Mbps
*.switch0.eth[7].bitrate = 1700Mbps
*.switch0.eth[8].bitrate = 2000Mbps
*.switch0.eth[9].bitrate = 1900Mbps
*.switch0.eth[10].bitrate = 2000Mbps
*.switch0.eth[11].bitrate = 1600Mbps
*.switch0.eth[12].bitrate = 1900Mbps
*.host1.eth[0].bitrate = 1000Mbps
*.switch1.eth[0].bitrate = 1000Mbps
*.switch1.eth[1].bitrate = 1900Mbps
*.switch1.eth[2].bitrate = 1200Mbps
*.switch1.eth[3].bitrate = 1300Mbps
*.switch1.eth[4].bitrate = 1600Mbps
*.switch1.eth[5].bitrate = 2300Mbps
*.switch1.eth[6].bitrate = 1900Mbps
*.switch1.eth[7].bitrate = 2400Mbps
*.switch1.eth[8].bitrate = 1700Mbps
*.switch1.eth[9].bitrate = 2100Mbps
*.switch1.eth[10].bitrate = 2300Mbps
*.switch1.eth[11].bitrate = 2200Mbps
*.switch1.eth[12].bitrate = 1700Mbps
*.switch1.eth[13].bitrate = 1700Mbps
*.switch1.eth[14].bitrate = 1600Mbps
*.switch1.eth[15].bitrate = 1800Mbps
*.switch1.eth[16].bitrate = 2200Mbps
*.switch1.eth[17].bitrate = 2300Mbps
*.switch1.eth[18].bitrate = 2400Mbps
*.switch1.eth[19].bitrate = 1500Mbps
*.host2.eth[0].bitrate = 1000Mbps
*.switch2.eth[0].bitrate = 1000Mbps
*.switch2.eth[1].bitrate = 1200Mbps
*.switch2.eth[2].bitrate = 1200Mbps
*.switch2.eth[3].bitrate = 1700Mbps
*.switch2.eth[4].bitrate = 2000Mbps
*.switch2.eth[5].bitrate = 2000Mbps
*.switch2.eth[6].bitrate = 2400Mbps
*.switch2.eth[7].bitrate = 2000Mbps
*.switch2.eth[8].bitrate = 1900Mbps
*.switch2.eth[9].bitrate = 1600Mbps
*.switch2.eth[10].bitrate = 1900Mbps
*.switch2.eth[11].bitrate = 1500Mbps
*.switch2.eth[12].bitrate = 1500Mbps
*.switch2.eth[13].bitrate = 1200Mbps
*.switch2.eth[14].bitrate = 2300Mbps
*.switch2.eth[15].bitrate = 1400Mbps
*.switch2.eth[16].bitrate = 1900Mbps
*.switch2.eth[17].bitrate = 2400Mbps
*.host3.eth[0].bitrate = 1000Mbps
*.switch3.eth[0].bitrate = 1000Mbps
*.switch3.eth[1].bitrate = 1400Mbps
*.switch3.eth[2].bitrate = 1300Mbps
*.switch3.eth[3].bitrate = 1700Mbps
*.switch3.eth[4].bitrate = 1200Mbps
*.switch3.eth[5].bitrate = 1600Mbps
*.switch3.eth[6].bitrate = 1600Mbps
*.switch3.eth[7].bitrate = 1800Mbps
*.switch3.eth[8].bitrate = 1600Mbps
*.switch3.eth[9].bitrate = 1700Mbps
*.switch3.eth[10].bitrate = 2100Mbps
*.switch3.eth[11].bitrate = 2300Mbps
*.switch3.eth[12].bitrate = 1800Mbps
*.switch3.eth[13].bitrate = 1700Mbps
*.switch3.eth[14].bitrate = 2300Mbps
*.switch3.eth[15].bitrate = 1600Mbps
*.switch3.eth[16].bitrate = 2300Mbps
*.switch3.eth[17].bitrate = 2300Mbps
*.switch3.eth[18].bitrate = 2400Mbps
*.switch3.eth[19].bitrate = 1500Mbps
*.switch3.eth[20].bitrate = 1300Mbps
*.switch3.eth[21].bitrate = 1900Mbps
*.host4.eth[0].bitrate = 1000Mbps
*.switch4.eth[0].bitrate = 1000Mbps
*.switch4.eth[1].bitrate = 1600Mbps
*.switch4.eth[2].bitrate = 2000Mbps
*.switch4.eth[3].bitrate = 1800Mbps
*.switch4.eth[4].bitrate = 1700Mbps
*.switch4.eth[5].bitrate = 1900Mbps
*.switch4.eth[6].bitrate = 1600Mbps
*.switch4.eth[7].bitrate = 2000Mbps
*.switch4.eth[8].bitrate = 1900Mbps
*.switch4.eth[9].bitrate = 1500Mbps
*.switch4.eth[10].bitrate = 2200Mbps
*.switch4.eth[11].bitrate = 2300Mbps
*.switch4.eth[12].bitrate = 2000Mbps
*.switch4.eth[13].bitrate = 1700Mbps
*.switch4.eth[14].bitrate = 1600Mbps
*.switch4.eth[15].bitrate = 1900Mbps
*.switch4.eth[16].bitrate = 2100Mbps
*.switch4.eth[17].bitrate = 2100Mbps
*.switch4.eth[18].bitrate = 2200Mbps
*.switch4.eth[19].bitrate = 1300Mbps
*.host5.eth[0].bitrate = 1000Mbps
*.switch5.eth[0].bitrate = 1000Mbps
*.switch5.eth[1].bitrate = 2300Mbps
*.switch5.eth[2].bitrate = 2000Mbps
*.switch5.eth[3].bitrate = 1600Mbps
*.switch5.eth[4].bitrate = 2000Mbps
*.switch5.eth[5].bitrate = 1500Mbps
*.switch5.eth[6].bitrate = 2300Mbps
*.switch5.eth[7].bitrate = 2000Mbps
*.switch5.eth[8].bitrate = 2100Mbps
*.switch5.eth[9].bitrate = 2000Mbps
*.switch5.eth[10].bitrate = 1200Mbps
*.switch5.eth[11].bitrate = 2000Mbps
*.switch5.eth[12].bitrate = 2200Mbps
*.switch5.eth[13].bitrate = 1600Mbps
*.host6.eth[0].bitrate = 1000Mbps
*.switch6.eth[0].bitrate = 1000Mbps
*.switch6.eth[1].bitrate = 1900Mbps
*.switch6.eth[2].bitrate = 1700Mbps
*.switch6.eth[3].bitrate = 1900Mbps
*.switch6.eth[4].bitrate = 1500Mbps
*.switch6.eth[5].bitrate = 2100Mbps
*.switch6.eth[6].bitrate = 1700Mbps
*.switch6.eth[7].bitrate = 2400Mbps
*.switch6.eth[8].bitrate = 1300Mbps
*.switch6.eth[9].bitrate = 2400Mbps
*.switch6.eth[10].bitrate = 2000Mbps
*.switch6.eth[11].bitrate = 1300Mbps
*.switch6.eth[12].bitrate = 2400Mbps
*.switch6.eth[13].bitrate = 1800Mbps
*.host7.eth[0].bitrate = 1000Mbps
*.switch7.eth[0].bitrate = 1000Mbps
*.switch7.eth[1].bitrate = 1900Mbps
*.switch7.eth[2].bitrate = 2400Mbps
*.switch7.eth[3].bitrate = 2100Mbps
*.switch7.eth[4].bitrate = 1500Mbps
*.switch7.eth[5].bitrate = 2000Mbps
*.switch7.eth[6].bitrate = 2000Mbps
*.switch7.eth[7].bitrate = 1800Mbps
*.switch7.eth[8].bitrate = 1200Mbps
*.switch7.eth[9].bitrate = 2300Mbps
*.switch7.eth[10].bitrate = 2400Mbps
*.switch7.eth[11].bitrate = 1900Mbps
*.switch7.eth[12].bitrate = 2100Mbps
*.switch7.eth[13].bitrate = 2000Mbps
*.switch7.eth[14].bitrate = 2400Mbps
*.switch7.eth[15].bitrate = 1800Mbps
*.switch7.eth[16].bitrate = 1800Mbps
*.switch7.eth[17].bitrate = 1600Mbps
*.switch7.eth[18].bitrate = 1800Mbps
*.switch7.eth[19].bitrate = 2300Mbps
*.switch7.eth[20].bitrate = 1400Mbps
*.host8.eth[0].bitrate = 1000Mbps
*.switch8.eth[0].bitrate = 1000Mbps
*.switch8.eth[1].bitrate = 2300Mbps
*.switch8.eth[2].bitrate = 2200Mbps
*.switch8.eth[3].bitrate = 2200Mbps
*.switch8.eth[4].bitrate = 2300Mbps
*.switch8.eth[5].bitrate = 2400Mbps
*.switch8.eth[6].bitrate = 2100Mbps
*.switch8.eth[7].bitrate = 1200Mbps
*.switch8.eth[8].bitrate = 1300Mbps
*.switch8.eth[9].bitrate = 1800Mbps
*.switch8.eth[10].bitrate = 1700Mbps
*.switch8.eth[11].bitrate = 1200Mbps
*.switch8.eth[12].bitrate = 2400Mbps
*.switch8.eth[13].bitrate = 2400Mbps
*.switch8.eth[14].bitrate = 1300Mbps
*.switch8.eth[15].bitrate = 1900Mbps
*.switch8.eth[16].bitrate = 2300Mbps
*.switch8.eth[17].bitrate = 1400Mbps
*.switch8.eth[18].bitrate = 1200Mbps
*.switch8.eth[19].bitrate = 1800Mbps
*.host9.eth[0].bitrate = 1000Mbps
*.switch9.eth[0].bitrate = 1000Mbps
*.switch9.eth[1].bitrate = 1700Mbps
*.switch9.eth[2].bitrate = 2300Mbps
*.switch9.eth[3].bitrate = 1700Mbps
*.switch9.eth[4].bitrate = 1900Mbps
*.switch9.eth[5].bitrate = 1400Mbps
*.switch9.eth[6].bitrate = 2000Mbps
*.switch9.eth[7].bitrate = 2400Mbps
*.switch9.eth[8].bitrate = 1600Mbps
*.switch9.eth[9].bitrate = 1900Mbps
*.switch9.eth[10].bitrate = 1600Mbps
*.switch9.eth[11].bitrate = 1200Mbps
*.switch9.eth[12].bitrate = 2000Mbps
*.host10.eth[0].bitrate = 1000Mbps
*.switch10.eth[0].bitrate = 1000Mbps
*.switch10.eth[1].bitrate = 2100Mbps
*.switch10.eth[2].bitrate = 2400Mbps
*.switch10.eth[3].bitrate = 1800Mbps
*.switch10.eth[4].bitrate = 2000Mbps
*.switch10.eth[5].bitrate = 1900Mbps
*.switch10.eth[6].bitrate = 1200Mbps
*.switch10.eth[7].bitrate = 2000Mbps
*.switch10.eth[8].bitrate = 2300Mbps
*.switch10.eth[9].bitrate = 2000Mbps
*.switch10.eth[10].bitrate = 2400Mbps
*.host11.eth[0].bitrate = 1000Mbps
*.switch11.eth[0].bitrate = 1000Mbps
*.switch11.eth[1].bitrate = 2300Mbps
*.switch11.eth[2].bitrate = 2000Mbps
*.switch11.eth[3].bitrate = 1700Mbps
*.switch11.eth[4].bitrate = 1700Mbps
*.switch11.eth[5].bitrate = 2100Mbps
*.switch11.eth[6].bitrate = 2100Mbps
*.switch11.eth[7].bitrate = 2400Mbps
*.switch11.eth[8].bitrate = 2000Mbps
*.switch11.eth[9].bitrate = 2300Mbps
*.switch11.eth[10].bitrate = 1900Mbps
*.switch11.eth[11].bitrate = 2000Mbps
*.switch11.eth[12].bitrate = 1800Mbps
*.switch11.eth[13].bitrate = 1400Mbps
*.switch11.eth[14].bitrate = 2400Mbps
*.host12.eth[0].bitrate = 1000Mbps
*.switch12.eth[0].bitrate = 1000Mbps
*.switch12.eth[1].bitrate = 1300Mbps
*.switch12.eth[2].bitrate = 2200Mbps
*.switch12.eth[3].bitrate = 1600Mbps
*.switch12.eth[4].bitrate = 2100Mbps
*.switch12.eth[5].bitrate = 2000Mbps
*.switch12.eth[6].bitrate = 1600Mbps
*.switch12.eth[7].bitrate = 1600Mbps
*.switch12.eth[8].bitrate = 2400Mbps
*.switch12.eth[9].bitrate = 2400Mbps
*.switch12.eth[10].bitrate = 1500Mbps
*.switch12.eth[11].bitrate = 2200Mbps
*.switch12.eth[12].bitrate = 2200Mbps
*.switch12.eth[13].bitrate = 1300Mbps
*.switch12.eth[14].bitrate = 2300Mbps
*.switch12.eth[15].bitrate = 1200Mbps
*.switch12.eth[16].bitrate = 1200Mbps
*.switch12.eth[17].bitrate = 2400Mbps
*.switch12.eth[18].bitrate = 2400Mbps
*.switch12.eth[19].bitrate = 1800Mbps
*.host13.eth[0].bitrate = 1000Mbps
*.switch13.eth[0].bitrate = 1000Mbps
*.switch13.eth[1].bitrate = 1700Mbps
*.switch13.eth[2].bitrate = 2300Mbps
*.switch13.eth[3].bitrate = 1900Mbps
*.switch13.eth[4].bitrate = 2400Mbps
*.switch13.eth[5].bitrate = 2400Mbps
*.switch13.eth[6].bitrate = 1300Mbps
*.switch13.eth[7].bitrate = 1600Mbps
*.switch13.eth[8].bitrate = 2400Mbps
*.switch13.eth[9].bitrate = 2100Mbps
*.host14.eth[0].bitrate = 1000Mbps
*.switch14.eth[0].bitrate = 1000Mbps
*.switch14.eth[1].bitrate = 1700Mbps
*.switch14.eth[2].bitrate = 1900Mbps
*.switch14.eth[3].bitrate = 2100Mbps
*.switch14.eth[4].bitrate = 2000Mbps
*.switch14.eth[5].bitrate = 1700Mbps
*.switch14.eth[6].bitrate = 1800Mbps
*.switch14.eth[7].bitrate = 1300Mbps
*.switch14.eth[8].bitrate = 1800Mbps
*.switch14.eth[9].bitrate = 1900Mbps
*.switch14.eth[10].bitrate = 1500Mbps
*.switch14.eth[11].bitrate = 1900Mbps
*.switch14.eth[12].bitrate = 1300Mbps
*.switch14.eth[13].bitrate = 1800Mbps
*.switch14.eth[14].bitrate = 1400Mbps
*.switch14.eth[15].bitrate = 1800Mbps
*.switch14.eth[16].bitrate = 2000Mbps
*.switch14.eth[17].bitrate = 2100Mbps
*.host0.numApps = 14
*.host0.app[0].typename = "UdpSinkApp"
*.host0.app[0].io.localPort = 1000
*.host0.app[1].typename = "UdpBasicApp"
*.host0.app[1].destAddresses = "host9"
*.host0.app[1].source.packetNameFormat = "%M-%m-%c"
*.host0.app[1].source.displayStringTextFormat = "sent %p pk (%l)"
*.host0.app[1].messageLength = 18B
*.host0.app[1].sendInterval = 1ms
*.host0.app[1].startTime = 7ms
*.host0.app[1].stopTime = 14ms
*.host0.app[1].display-name = "type2_1"
*.host0.app[1].destPort = 1000
*.host0.app[2].typename = "UdpBasicApp"
*.host0.app[2].destAddresses = "host9"
*.host0.app[2].source.packetNameFormat = "%M-%m-%c"
*.host0.app[2].source.displayStringTextFormat = "sent %p pk (%l)"
*.host0.app[2].messageLength = 18B
*.host0.app[2].sendInterval = 1ms
*.host0.app[2].startTime = 23ms
*.host0.app[2].stopTime = 25ms
*.host0.app[2].display-name = "type2_1"
*.host0.app[2].destPort = 1000
*.host0.app[3].typename = "UdpBasicApp"
*.host0.app[3].destAddresses = "host9"
*.host0.app[3].source.packetNameFormat = "%M-%m-%c"
*.host0.app[3].source.displayStringTextFormat = "sent %p pk (%l)"
*.host0.app[3].messageLength = 18B
*.host0.app[3].sendInterval = 1ms
*.host0.app[3].startTime = 33ms
*.host0.app[3].stopTime = 36ms
*.host0.app[3].display-name = "type2_1"
*.host0.app[3].destPort = 1000
*.host0.app[4].typename = "UdpBasicApp"
*.host0.app[4].destAddresses = "host9"
*.host0.app[4].source.packetNameFormat = "%M-%m-%c"
*.host0.app[4].source.displayStringTextFormat = "sent %p pk (%l)"
*.host0.app[4].messageLength = 18B
*.host0.app[4].sendInterval = 1ms
*.host0.app[4].startTime = 72ms
*.host0.app[4].stopTime = 74ms
*.host0.app[4].display-name = "type2_1"
*.host0.app[4].destPort = 1000
*.host0.app[5].typename = "UdpBasicApp"
*.host0.app[5].destAddresses = "host9"
*.host0.app[5].source.packetNameFormat = "%M-%m-%c"
*.host0.app[5].source.displayStringTextFormat = "sent %p pk (%l)"
*.host0.app[5].messageLength = 18B
*.host0.app[5].sendInterval = 1ms
*.host0.app[5].startTime = 76ms
*.host0.app[5].stopTime = 81ms
*.host0.app[5].display-name = "type2_1"
*.host0.app[5].destPort = 1000
*.host0.app[6].typename = "UdpBasicApp"
*.host0.app[6].destAddresses = "host1"
*.host0.app[6].source.packetNameFormat = "%M-%m-%c"
*.host0.app[6].source.displayStringTextFormat = "sent %p pk (%l)"
*.host0.app[6].messageLength = 13B
*.host0.app[6].sendInterval = 1ms
*.host0.app[6].startTime = 5ms
*.host0.app[6].stopTime = 10ms
*.host0.app[6].display-name = "type2_8"
*.host0.app[6].destPort = 1003
*.host0.app[7].typename = "UdpBasicApp"
*.host0.app[7].destAddresses = "host1"
*.host0.app[7].source.packetNameFormat = "%M-%m-%c"
*.host0.app[7].source.displayStringTextFormat = "sent %p pk (%l)"
*.host0.app[7].messageLength = 13B
*.host0.app[7].sendInterval = 1ms
*.host0.app[7].startTime = 15ms
*.host0.app[7].stopTime = 16ms
*.host0.app[7].display-name = "type2_8"
*.host0.app[7].destPort = 1003
*.host0.app[8].typename = "UdpBasicApp"
*.host0.app[8].destAddresses = "host1"
*.host0.app[8].source.packetNameFormat = "%M-%m-%c"
*.host0.app[8].source.displayStringTextFormat = "sent %p pk (%l)"
*.host0.app[8].messageLength = 13B
*.host0.app[8].sendInterval = 1ms
*.host0.app[8].startTime = 22ms
*.host0.app[8].stopTime = 37ms
*.host0.app[8].display-name = "type2_8"
*.host0.app[8].destPort = 1003
*.host0.app[9].typename = "UdpBasicApp"
*.host0.app[9].destAddresses = "host1"
*.host0.app[9].source.packetNameFormat = "%M-%m-%c"
*.host0.app[9].source.displayStringTextFormat = "sent %p pk (%l)"
*.host0.app[9].messageLength = 13B
*.host0.app[9].sendInterval = 1ms
*.host0.app[9].startTime = 52ms
*.host0.app[9].stopTime = 53ms
*.host0.app[9].display-name = "type2_8"
*.host0.app[9].destPort = 1003
*.host0.app[10].typename = "UdpBasicApp"
*.host0.app[10].destAddresses = "host1"
*.host0.app[10].source.packetNameFormat = "%M-%m-%c"
*.host0.app[10].source.displayStringTextFormat = "sent %p pk (%l)"
*.host0.app[10].messageLength = 13B
*.host0.app[10].sendInterval = 1ms
*.host0.app[10].startTime = 59ms
*.host0.app[10].stopTime = 60ms
*.host0.app[10].display-name = "type2_8"
*.host0.app[10].destPort = 1003
*.host0.app[11].typename = "UdpBasicApp"
*.host0.app[11].destAddresses = "host1"
*.host0.app[11].source.packetNameFormat = "%M-%m-%c"
*.host0.app[11].source.displayStringTextFormat = "sent %p pk (%l)"
*.host0.app[11].messageLength = 13B
*.host0.app[11].sendInterval = 1ms
*.host0.app[11].startTime = 64ms
*.host0.app[11].stopTime = 69ms
*.host0.app[11].display-name = "type2_8"
*.host0.app[11].destPort = 1003
*.host0.app[12].typename = "UdpBasicApp"
*.host0.app[12].destAddresses = "host1"
*.host0.app[12].source.packetNameFormat = "%M-%m-%c"
*.host0.app[12].source.displayStringTextFormat = "sent %p pk (%l)"
*.host0.app[12].messageLength = 13B
*.host0.app[12].sendInterval = 1ms
*.host0.app[12].startTime = 71ms
*.host0.app[12].stopTime = 77ms
*.host0.app[12].display-name = "type2_8"
*.host0.app[12].destPort = 1003
*.host0.app[13].typename = "UdpBasicApp"
*.host0.app[13].destAddresses = "host1"
*.host0.app[13].source.packetNameFormat = "%M-%m-%c"
*.host0.app[13].source.displayStringTextFormat = "sent %p pk (%l)"
*.host0.app[13].messageLength = 13B
*.host0.app[13].sendInterval = 1ms
*.host0.app[13].startTime = 79ms
*.host0.app[13].stopTime = 81ms
*.host0.app[13].display-name = "type2_8"
*.host0.app[13].destPort = 1003
*.host1.numApps = 8
*.host1.app[0].typename = "UdpSinkApp"
*.host1.app[0].io.localPort = 1000
*.host1.app[1].typename = "UdpSinkApp"
*.host1.app[1].io.localPort = 1001
*.host1.app[2].typename = "UdpSinkApp"
*.host1.app[2].io.localPort = 1002
*.host1.app[3].typename = "UdpSinkApp"
*.host1.app[3].io.localPort = 1003
*.host1.app[4].typename = "UdpBasicApp"
*.host1.app[4].destAddresses = "host3"
*.host1.app[4].source.packetNameFormat = "%M-%m-%c"
*.host1.app[4].source.displayStringTextFormat = "sent %p pk (%l)"
*.host1.app[4].messageLength = 19B
*.host1.app[4].sendInterval = 1ms
*.host1.app[4].startTime = 4ms
*.host1.app[4].stopTime = 18ms
*.host1.app[4].display-name = "type2_11"
*.host1.app[4].destPort = 1002
*.host1.app[5].typename = "UdpBasicApp"
*.host1.app[5].destAddresses = "host3"
*.host1.app[5].source.packetNameFormat = "%M-%m-%c"
*.host1.app[5].source.displayStringTextFormat = "sent %p pk (%l)"
*.host1.app[5].messageLength = 19B
*.host1.app[5].sendInterval = 1ms
*.host1.app[5].startTime = 22ms
*.host1.app[5].stopTime = 55ms
*.host1.app[5].display-name = "type2_11"
*.host1.app[5].destPort = 1002
*.host1.app[6].typename = "UdpBasicApp"
*.host1.app[6].destAddresses = "host3"
*.host1.app[6].source.packetNameFormat = "%M-%m-%c"
*.host1.app[6].source.displayStringTextFormat = "sent %p pk (%l)"
*.host1.app[6].messageLength = 19B
*.host1.app[6].sendInterval = 1ms
*.host1.app[6].startTime = 71ms
*.host1.app[6].stopTime = 85ms
*.host1.app[6].display-name = "type2_11"
*.host1.app[6].destPort = 1002
*.host1.app[7].typename = "UdpBasicApp"
*.host1.app[7].destAddresses = "host3"
*.host1.app[7].source.packetNameFormat = "%M-%m-%c"
*.host1.app[7].source.displayStringTextFormat = "sent %p pk (%l)"
*.host1.app[7].messageLength = 19B
*.host1.app[7].sendInterval = 1ms
*.host1.app[7].startTime = 93ms
*.host1.app[7].stopTime = 100ms
*.host1.app[7].display-name = "type2_11"
*.host1.app[7].destPort = 1002
*.host2.numApps = 12
*.host2.app[0].typename = "UdpSinkApp"
*.host2.app[0].io.localPort = 1000
*.host2.app[1].typename = "UdpBasicApp"
*.host2.app[1].destAddresses = "host4"
*.host2.app[1].source.packetNameFormat = "%M-%m-%c"
*.host2.app[1].source.displayStringTextFormat = "sent %p pk (%l)"
*.host2.app[1].messageLength = 17B
*.host2.app[1].sendInterval = 1ms
*.host2.app[1].startTime = 5ms
*.host2.app[1].stopTime = 17ms
*.host2.app[1].display-name = "type2_4"
*.host2.app[1].destPort = 1000
*.host2.app[2].typename = "UdpBasicApp"
*.host2.app[2].destAddresses = "host4"
*.host2.app[2].source.packetNameFormat = "%M-%m-%c"
*.host2.app[2].source.displayStringTextFormat = "sent %p pk (%l)"
*.host2.app[2].messageLength = 17B
*.host2.app[2].sendInterval = 1ms
*.host2.app[2].startTime = 25ms
*.host2.app[2].stopTime = 26ms
*.host2.app[2].display-name = "type2_4"
*.host2.app[2].destPort = 1000
*.host2.app[3].typename = "UdpBasicApp"
*.host2.app[3].destAddresses = "host4"
*.host2.app[3].source.packetNameFormat = "%M-%m-%c"
*.host2.app[3].source.displayStringTextFormat = "sent %p pk (%l)"
*.host2.app[3].messageLength = 17B
*.host2.app[3].sendInterval = 1ms
*.host2.app[3].startTime = 31ms
*.host2.app[3].stopTime = 34ms
*.host2.app[3].display-name = "type2_4"
*.host2.app[3].destPort = 1000
*.host2.app[4].typename = "UdpBasicApp"
*.host2.app[4].destAddresses = "host4"
*.host2.app[4].source.packetNameFormat = "%M-%m-%c"
*.host2.app[4].source.displayStringTextFormat = "sent %p pk (%l)"
*.host2.app[4].messageLength = 17B
*.host2.app[4].sendInterval = 1ms
*.host2.app[4].startTime = 49ms
*.host2.app[4].stopTime = 72ms
*.host2.app[4].display-name = "type2_4"
*.host2.app[4].destPort = 1000
*.host2.app[5].typename = "UdpBasicApp"
*.host2.app[5].destAddresses = "host4"
*.host2.app[5].source.packetNameFormat = "%M-%m-%c"
*.host2.app[5].source.displayStringTextFormat = "sent %p pk (%l)"
*.host2.app[5].messageLength = 17B
*.host2.app[5].sendInterval = 1ms
*.host2.app[5].startTime = 75ms
*.host2.app[5].stopTime = 81ms
*.host2.app[5].display-name = "type2_4"
*.host2.app[5].destPort = 1000
*.host2.app[6].typename = "UdpBasicApp"
*.host2.app[6].destAddresses = "host4"
*.host2.app[6].source.packetNameFormat = "%M-%m-%c"
*.host2.app[6].source.displayStringTextFormat = "sent %p pk (%l)"
*.host2.app[6].messageLength = 17B
*.host2.app[6].sendInterval = 1ms
*.host2.app[6].startTime = 87ms
*.host2.app[6].stopTime = 89ms
*.host2.app[6].display-name = "type2_4"
*.host2.app[6].destPort = 1000
*.host2.app[7].typename = "UdpBasicApp"
*.host2.app[7].destAddresses = "host4"
*.host2.app[7].source.packetNameFormat = "%M-%m-%c"
*.host2.app[7].source.displayStringTextFormat = "sent %p pk (%l)"
*.host2.app[7].messageLength = 13B
*.host2.app[7].sendInterval = 1ms
*.host2.app[7].startTime = 11ms
*.host2.app[7].stopTime = 46ms
*.host2.app[7].display-name = "type2_6"
*.host2.app[7].destPort = 1001
*.host2.app[8].typename = "UdpBasicApp"
*.host2.app[8].destAddresses = "host4"
*.host2.app[8].source.packetNameFormat = "%M-%m-%c"
*.host2.app[8].source.displayStringTextFormat = "sent %p pk (%l)"
*.host2.app[8].messageLength = 13B
*.host2.app[8].sendInterval = 1ms
*.host2.app[8].startTime = 48ms
*.host2.app[8].stopTime = 51ms
*.host2.app[8].display-name = "type2_6"
*.host2.app[8].destPort = 1001
*.host2.app[9].typename = "UdpBasicApp"
*.host2.app[9].destAddresses = "host4"
*.host2.app[9].source.packetNameFormat = "%M-%m-%c"
*.host2.app[9].source.displayStringTextFormat = "sent %p pk (%l)"
*.host2.app[9].messageLength = 13B
*.host2.app[9].sendInterval = 1ms
*.host2.app[9].startTime = 56ms
*.host2.app[9].stopTime = 59ms
*.host2.app[9].display-name = "type2_6"
*.host2.app[9].destPort = 1001
*.host2.app[10].typename = "UdpBasicApp"
*.host2.app[10].destAddresses = "host4"
*.host2.app[10].source.packetNameFormat = "%M-%m-%c"
*.host2.app[10].source.displayStringTextFormat = "sent %p pk (%l)"
*.host2.app[10].messageLength = 13B
*.host2.app[10].sendInterval = 1ms
*.host2.app[10].startTime = 62ms
*.host2.app[10].stopTime = 90ms
*.host2.app[10].display-name = "type2_6"
*.host2.app[10].destPort = 1001
*.host2.app[11].typename = "UdpBasicApp"
*.host2.app[11].destAddresses = "host4"
*.host2.app[11].source.packetNameFormat = "%M-%m-%c"
*.host2.app[11].source.displayStringTextFormat = "sent %p pk (%l)"
*.host2.app[11].messageLength = 13B
*.host2.app[11].sendInterval = 1ms
*.host2.app[11].startTime = 92ms
*.host2.app[11].stopTime = 100ms
*.host2.app[11].display-name = "type2_6"
*.host2.app[11].destPort = 1001
*.host3.numApps = 8
*.host3.app[0].typename = "UdpSinkApp"
*.host3.app[0].io.localPort = 1000
*.host3.app[1].typename = "UdpSinkApp"
*.host3.app[1].io.localPort = 1001
*.host3.app[2].typename = "UdpBasicApp"
*.host3.app[2].destAddresses = "host4"
*.host3.app[2].source.packetNameFormat = "%M-%m-%c"
*.host3.app[2].source.displayStringTextFormat = "sent %p pk (%l)"
*.host3.app[2].messageLength = 20B
*.host3.app[2].sendInterval = 1ms
*.host3.app[2].startTime = 7ms
*.host3.app[2].stopTime = 25ms
*.host3.app[2].display-name = "type2_10"
*.host3.app[2].destPort = 1002
*.host3.app[3].typename = "UdpBasicApp"
*.host3.app[3].destAddresses = "host4"
*.host3.app[3].source.packetNameFormat = "%M-%m-%c"
*.host3.app[3].source.displayStringTextFormat = "sent %p pk (%l)"
*.host3.app[3].messageLength = 20B
*.host3.app[3].sendInterval = 1ms
*.host3.app[3].startTime = 54ms
*.host3.app[3].stopTime = 66ms
*.host3.app[3].display-name = "type2_10"
*.host3.app[3].destPort = 1002
*.host3.app[4].typename = "UdpBasicApp"
*.host3.app[4].destAddresses = "host4"
*.host3.app[4].source.packetNameFormat = "%M-%m-%c"
*.host3.app[4].source.displayStringTextFormat = "sent %p pk (%l)"
*.host3.app[4].messageLength = 20B
*.host3.app[4].sendInterval = 1ms
*.host3.app[4].startTime = 71ms
*.host3.app[4].stopTime = 72ms
*.host3.app[4].display-name = "type2_10"
*.host3.app[4].destPort = 1002
*.host3.app[5].typename = "UdpBasicApp"
*.host3.app[5].destAddresses = "host4"
*.host3.app[5].source.packetNameFormat = "%M-%m-%c"
*.host3.app[5].source.displayStringTextFormat = "sent %p pk (%l)"
*.host3.app[5].messageLength = 20B
*.host3.app[5].sendInterval = 1ms
*.host3.app[5].startTime = 74ms
*.host3.app[5].stopTime = 90ms
*.host3.app[5].display-name = "type2_10"
*.host3.app[5].destPort = 1002
*.host3.app[6].typename = "UdpBasicApp"
*.host3.app[6].destAddresses = "host4"
*.host3.app[6].source.packetNameFormat = "%M-%m-%c"
*.host3.app[6].source.displayStringTextFormat = "sent %p pk (%l)"
*.host3.app[6].messageLength = 20B
*.host3.app[6].sendInterval = 1ms
*.host3.app[6].startTime = 91ms
*.host3.app[6].stopTime = 100ms
*.host3.app[6].display-name = "type2_10"
*.host3.app[6].destPort = 1002
*.host3.app[7].typename = "UdpSinkApp"
*.host3.app[7].io.localPort = 1002
*.host4.numApps = 8
*.host4.app[0].typename = "UdpSinkApp"
*.host4.app[0].io.localPort = 1000
*.host4.app[1].typename = "UdpSinkApp"
*.host4.app[1].io.localPort = 1001
*.host4.app[2].typename = "UdpBasicApp"
*.host4.app[2].destAddresses = "host1"
*.host4.app[2].source.packetNameFormat = "%M-%m-%c"
*.host4.app[2].source.displayStringTextFormat = "sent %p pk (%l)"
*.host4.app[2].messageLength = 14B
*.host4.app[2].sendInterval = 1ms
*.host4.app[2].startTime = 5ms
*.host4.app[2].stopTime = 7ms
*.host4.app[2].display-name = "type2_7"
*.host4.app[2].destPort = 1002
*.host4.app[3].typename = "UdpBasicApp"
*.host4.app[3].destAddresses = "host1"
*.host4.app[3].source.packetNameFormat = "%M-%m-%c"
*.host4.app[3].source.displayStringTextFormat = "sent %p pk (%l)"
*.host4.app[3].messageLength = 14B
*.host4.app[3].sendInterval = 1ms
*.host4.app[3].startTime = 18ms
*.host4.app[3].stopTime = 19ms
*.host4.app[3].display-name = "type2_7"
*.host4.app[3].destPort = 1002
*.host4.app[4].typename = "UdpBasicApp"
*.host4.app[4].destAddresses = "host1"
*.host4.app[4].source.packetNameFormat = "%M-%m-%c"
*.host4.app[4].source.displayStringTextFormat = "sent %p pk (%l)"
*.host4.app[4].messageLength = 14B
*.host4.app[4].sendInterval = 1ms
*.host4.app[4].startTime = 35ms
*.host4.app[4].stopTime = 42ms
*.host4.app[4].display-name = "type2_7"
*.host4.app[4].destPort = 1002
*.host4.app[5].typename = "UdpBasicApp"
*.host4.app[5].destAddresses = "host1"
*.host4.app[5].source.packetNameFormat = "%M-%m-%c"
*.host4.app[5].source.displayStringTextFormat = "sent %p pk (%l)"
*.host4.app[5].messageLength = 14B
*.host4.app[5].sendInterval = 1ms
*.host4.app[5].startTime = 44ms
*.host4.app[5].stopTime = 66ms
*.host4.app[5].display-name = "type2_7"
*.host4.app[5].destPort = 1002
*.host4.app[6].typename = "UdpBasicApp"
*.host4.app[6].destAddresses = "host1"
*.host4.app[6].source.packetNameFormat = "%M-%m-%c"
*.host4.app[6].source.displayStringTextFormat = "sent %p pk (%l)"
*.host4.app[6].messageLength = 14B
*.host4.app[6].sendInterval = 1ms
*.host4.app[6].startTime = 79ms
*.host4.app[6].stopTime = 100ms
*.host4.app[6].display-name = "type2_7"
*.host4.app[6].destPort = 1002
*.host4.app[7].typename = "UdpSinkApp"
*.host4.app[7].io.localPort = 1002
*.host5.numApps = 2
*.host5.app[0].typename = "UdpSourceApp"
*.host5.app[0].io.destAddress = "host14"
*.host5.app[0].source.packetNameFormat = "%M-%m-%c"
*.host5.app[0].source.displayStringTextFormat = "sent %p pk (%l)"
*.host5.app[0].source.packetLength = 24B
*.host5.app[0].source.productionInterval = 1ms
*.host5.app[0].display-name = "type1_0"
*.host5.app[0].io.destPort = 1000
*.host5.app[1].typename = "UdpSourceApp"
*.host5.app[1].io.destAddress = "host3"
*.host5.app[1].source.packetNameFormat = "%M-%m-%c"
*.host5.app[1].source.displayStringTextFormat = "sent %p pk (%l)"
*.host5.app[1].source.packetLength = 15B
*.host5.app[1].source.productionInterval = 1ms
*.host5.app[1].display-name = "type1_1"
*.host5.app[1].io.destPort = 1000
*.host6.numApps = 1
*.host6.app[0].typename = "UdpSourceApp"
*.host6.app[0].io.destAddress = "host2"
*.host6.app[0].source.packetNameFormat = "%M-%m-%c"
*.host6.app[0].source.displayStringTextFormat = "sent %p pk (%l)"
*.host6.app[0].source.packetLength = 16B
*.host6.app[0].source.productionInterval = 1ms
*.host6.app[0].display-name = "type1_2"
*.host6.app[0].io.destPort = 1000
*.host7.numApps = 0
*.host8.numApps = 0
*.host9.numApps = 8
*.host9.app[0].typename = "UdpSinkApp"
*.host9.app[0].io.localPort = 1000
*.host9.app[1].typename = "UdpBasicApp"
*.host9.app[1].destAddresses = "host3"
*.host9.app[1].source.packetNameFormat = "%M-%m-%c"
*.host9.app[1].source.displayStringTextFormat = "sent %p pk (%l)"
*.host9.app[1].messageLength = 15B
*.host9.app[1].sendInterval = 1ms
*.host9.app[1].startTime = 0ms
*.host9.app[1].stopTime = 1ms
*.host9.app[1].display-name = "type2_9"
*.host9.app[1].destPort = 1001
*.host9.app[2].typename = "UdpBasicApp"
*.host9.app[2].destAddresses = "host3"
*.host9.app[2].source.packetNameFormat = "%M-%m-%c"
*.host9.app[2].source.displayStringTextFormat = "sent %p pk (%l)"
*.host9.app[2].messageLength = 15B
*.host9.app[2].sendInterval = 1ms
*.host9.app[2].startTime = 14ms
*.host9.app[2].stopTime = 20ms
*.host9.app[2].display-name = "type2_9"
*.host9.app[2].destPort = 1001
*.host9.app[3].typename = "UdpBasicApp"
*.host9.app[3].destAddresses = "host3"
*.host9.app[3].source.packetNameFormat = "%M-%m-%c"
*.host9.app[3].source.displayStringTextFormat = "sent %p pk (%l)"
*.host9.app[3].messageLength = 15B
*.host9.app[3].sendInterval = 1ms
*.host9.app[3].startTime = 27ms
*.host9.app[3].stopTime = 30ms
*.host9.app[3].display-name = "type2_9"
*.host9.app[3].destPort = 1001
*.host9.app[4].typename = "UdpBasicApp"
*.host9.app[4].destAddresses = "host3"
*.host9.app[4].source.packetNameFormat = "%M-%m-%c"
*.host9.app[4].source.displayStringTextFormat = "sent %p pk (%l)"
*.host9.app[4].messageLength = 15B
*.host9.app[4].sendInterval = 1ms
*.host9.app[4].startTime = 34ms
*.host9.app[4].stopTime = 38ms
*.host9.app[4].display-name = "type2_9"
*.host9.app[4].destPort = 1001
*.host9.app[5].typename = "UdpBasicApp"
*.host9.app[5].destAddresses = "host3"
*.host9.app[5].source.packetNameFormat = "%M-%m-%c"
*.host9.app[5].source.displayStringTextFormat = "sent %p pk (%l)"
*.host9.app[5].messageLength = 15B
*.host9.app[5].sendInterval = 1ms
*.host9.app[5].startTime = 56ms
*.host9.app[5].stopTime = 69ms
*.host9.app[5].display-name = "type2_9"
*.host9.app[5].destPort = 1001
*.host9.app[6].typename = "UdpBasicApp"
*.host9.app[6].destAddresses = "host3"
*.host9.app[6].source.packetNameFormat = "%M-%m-%c"
*.host9.app[6].source.displayStringTextFormat = "sent %p pk (%l)"
*.host9.app[6].messageLength = 15B
*.host9.app[6].sendInterval = 1ms
*.host9.app[6].startTime = 78ms
*.host9.app[6].stopTime = 93ms
*.host9.app[6].display-name = "type2_9"
*.host9.app[6].destPort = 1001
*.host9.app[7].typename = "UdpBasicApp"
*.host9.app[7].destAddresses = "host3"