[General]
network = TSN_multipath
sim-time-limit = 100ms
*.macForwardingTableConfigurator.typename = ""
*.*.hasStreamRedundancy = true
*.*.bridging.streamRelay.typename = "StreamRelayLayer"
*.*.bridging.streamCoder.typename = "StreamCoderLayer"
*.streamRedundancyConfigurator.typename = "StreamRedundancyConfigurator"
*.host0.eth[0].bitrate = 1000Mbps
*.switch0.eth[0].bitrate = 1000Mbps
*.switch0.eth[1].bitrate = 1900Mbps
*.switch0.eth[2].bitrate = 1400Mbps
*.switch0.eth[3].bitrate = 1900Mbps
*.switch0.eth[4].bitrate = 1300Mbps
*.switch0.eth[5].bitrate = 1200Mbps
*.switch0.eth[6].bitrate = 1200Mbps
*.switch0.eth[7].bitrate = 1700Mbps
*.switch0.eth[8].bitrate = 2000Mbps
*.switch0.eth[9].bitrate = 1900Mbps
*.switch0.eth[10].bitrate = 2000Mbps
*.switch0.eth[11].bitrate = 1600Mbps
*.switch0.eth[12].bitrate = 1900Mbps
*.host1.eth[0].bitrate = 1000Mbps
*.switch1.eth[0].bitrate = 1000Mbps
*.switch1.eth[1].bitrate = 1900Mbps
*.switch1.eth[2].bitrate = 1200Mbps
*.switch1.eth[3].bitrate = 1300Mbps
*.switch1.eth[4].bitrate = 1600Mbps
*.switch1.eth[5].bitrate = 2300Mbps
*.switch1.eth[6].bitrate = 1900Mbps
*.switch1.eth[7].bitrate = 2400Mbps
*.switch1.eth[8].bitrate = 1700Mbps
*.switch1.eth[9].bitrate = 2100Mbps
*.switch1.eth[10].bitrate = 2300Mbps
*.switch1.eth[11].bitrate = 2200Mbps
*.switch1.eth[12].bitrate = 1700Mbps
*.switch1.eth[13].bitrate = 1700Mbps
*.switch1.eth[14].bitrate = 1600Mbps
*.switch1.eth[15].bitrate = 1800Mbps
*.switch1.eth[16].bitrate = 2200Mbps
*.switch1.eth[17].bitrate = 2300Mbps
*.switch1.eth[18].bitrate = 2400Mbps
*.switch1.eth[19].bitrate = 1500Mbps
*.host2.eth[0].bitrate = 1000Mbps
*.switch2.eth[0].bitrate = 1000Mbps
*.switch2.eth[1].bitrate = 1200Mbps
*.switch2.eth[2].bitrate = 1200Mbps
*.switch2.eth[3].bitrate = 1700Mbps
*.switch2.eth[4].bitrate = 2000Mbps
*.switch2.eth[5].bitrate = 2000Mbps
*.switch2.eth[6].bitrate = 2400Mbps
*.switch2.eth[7].bitrate = 2000Mbps
*.switch2.eth[8].bitrate = 1900Mbps
*.switch2.eth[9].bitrate = 1600Mbps
*.switch2.eth[10].bitrate = 1900Mbps
*.switch2.eth[11].bitrate = 1500Mbps
*.switch2.eth[12].bitrate = 1500Mbps
*.switch2.eth[13].bitrate = 1200Mbps
*.switch2.eth[14].bitrate = 2300Mbps
*.switch2.eth[15].bitrate = 1400Mbps
*.switch2.eth[16].bitrate = 1900Mbps
*.switch2.eth[17].bitrate = 2400Mbps
*.host3.eth[0].bitrate = 1000Mbps
*.switch3.eth[0].bitrate = 1000Mbps
*.switch3.eth[1].bitrate = 1400Mbps
*.switch3.eth[2].bitrate = 1300Mbps
*.switch3.eth[3].bitrate = 1700Mbps
*.switch3.eth[4].bitrate = 1200Mbps
*.switch3.eth[5].bitrate = 1600Mbps
*.switch3.eth[6].bitrate = 1600Mbps
*.switch3.eth[7].bitrate = 1800Mbps
*.switch3.eth[8].bitrate = 1600Mbps
*.switch3.eth[9].bitrate = 1700Mbps
*.switch3.eth[10].bitrate = 2100Mbps
*.switch3.eth[11].bitrate = 2300Mbps
*.switch3.eth[12].bitrate = 1800Mbps
*.switch3.eth[13].bitrate = 1700Mbps
*.switch3.eth[14].bitrate = 2300Mbps
*.switch3.eth[15].bitrate = 1600Mbps
*.switch3.eth[16].bitrate = 2300Mbps
*.switch3.eth[17].bitrate = 2300Mbps
*.switch3.eth[18].bitrate = 2400Mbps
*.switch3.eth[19].bitrate = 1500Mbps
*.switch3.eth[20].bitrate = 1300Mbps
*.switch3.eth[21].bitrate = 1900Mbps
*.host4.eth[0].bitrate = 1000Mbps
*.switch4.eth[0].bitrate = 1000Mbps
*.switch4.eth[1].bitrate = 1600Mbps
*.switch4.eth[2].bitrate = 2000Mbps
*.switch4.eth[3].bitrate = 1800Mbps
*.switch4.eth[4].bitrate = 1700Mbps
*.switch4.eth[5].bitrate = 1900Mbps
*.switch4.eth[6].bitrate = 1600Mbps
*.switch4.eth[7].bitrate = 2000Mbps
*.switch4.eth[8].bitrate = 1900Mbps
*.switch4.eth[9].bitrate = 1500Mbps
*.switch4.eth[10].bitrate = 2200Mbps
*.switch4.eth[11].bitrate = 2300Mbps
*.switch4.eth[12].bitrate = 2000Mbps
*.switch4.eth[13].bitrate = 1700Mbps
*.switch4.eth[14].bitrate = 1600Mbps
*.switch4.eth[15].bitrate = 1900Mbps
*.switch4.eth[16].bitrate = 2100Mbps
*.switch4.eth[17].bitrate = 2100Mbps
*.switch4.eth[18].bitrate = 2200Mbps
*.switch4.eth[19].bitrate = 1300Mbps
*.host5.eth[0].bitrate = 1000Mbps
*.switch5.eth[0].bitrate = 1000Mbps
*.switch5.eth[1].bitrate = 2300Mbps
*.switch5.eth[2].bitrate = 2000Mbps
*.switch5.eth[3].bitrate = 1600Mbps
*.switch5.eth[4].bitrate = 2000Mbps
*.switch5.eth[5].bitrate = 1500Mbps
*.switch5.eth[6].bitrate = 2300Mbps
*.switch5.eth[7].bitrate = 2000Mbps
*.switch5.eth[8].bitrate = 2100Mbps
*.switch5.eth[9].bitrate = 2000Mbps
*.switch5.eth[10].bitrate = 1200Mbps
*.switch5.eth[11].bitrate = 2000Mbps
*.switch5.eth[12].bitrate = 2200Mbps
*.switch5.eth[13].bitrate = 1600Mbps
*.host6.eth[0].bitrate = 1000Mbps
*.switch6.eth[0].bitrate = 1000Mbps
*.switch6.eth[1].bitrate = 1900Mbps
*.switch6.eth[2].bitrate = 1700Mbps
*.switch6.eth[3].bitrate = 1900Mbps
*.switch6.eth[4].bitrate = 1500Mbps
*.switch6.eth[5].bitrate = 2100Mbps
*.switch6.eth[6].bitrate = 1700Mbps
*.switch6.eth[7].bitrate = 2400Mbps
*.switch6.eth[8].bitrate = 1300Mbps
*.switch6.eth[9].bitrate = 2400Mbps
*.switch6.eth[10].bitrate = 2000Mbps
*.switch6.eth[11].bitrate = 1300Mbps
*.switch6.eth[12].bitrate = 2400Mbps
*.switch6.eth[13].bitrate = 1800Mbps
*.host7.eth[0].bitrate = 1000Mbps
*.switch7.eth[0].bitrate = 1000Mbps
*.switch7.eth[1].bitrate = 1900Mbps
*.switch7.eth[2].bitrate = 2400Mbps
*.switch7.eth[3].bitrate = 2100Mbps
*.switch7.eth[4].bitrate = 1500Mbps
*.switch7.eth[5].bitrate = 2000Mbps
*.switch7.eth[6].bitrate = 2000Mbps
*.switch7.eth[7].bitrate = 1800Mbps
*.switch7.eth[8].bitrate = 1200Mbps
*.switch7.eth[9].bitrate = 2300Mbps
*.switch7.eth[10].bitrate = 2400Mbps
*.switch7.eth[11].bitrate = 1900Mbps
*.switch7.eth[12].bitrate = 2100Mbps
*.switch7.eth[13].bitrate = 2000Mbps
*.switch7.eth[14].bitrate = 2400Mbps
*.switch7.eth[15].bitrate = 1800Mbps
*.switch7.eth[16].bitrate = 1800Mbps
*.switch7.eth[17].bitrate = 1600Mbps
*.switch7.eth[18].bitrate = 1800Mbps
*.switch7.eth[19].bitrate = 2300Mbps
*.switch7.eth[20].bitrate = 1400Mbps
*.host8.eth[0].bitrate = 1000Mbps
*.switch8.eth[0].bitrate = 1000Mbps
*.switch8.eth[1].bitrate = 2300Mbps
*.switch8.eth[2].bitrate = 2200Mbps
*.switch8.eth[3].bitrate = 2200Mbps
*.switch8.eth[4].bitrate = 2300Mbps
*.switch8.eth[5].bitrate = 2400Mbps
*.switch8.eth[6].bitrate = 2100Mbps
*.switch8.eth[7].bitrate = 1200Mbps
*.switch8.eth[8].bitrate = 1300Mbps
*.switch8.eth[9].bitrate = 1800Mbps
*.switch8.eth[10].bitrate = 1700Mbps
*.switch8.eth[11].bitrate = 1200Mbps
*.switch8.eth[12].bitrate = 2400Mbps
*.switch8.eth[13].bitrate = 2400Mbps
*.switch8.eth[14].bitrate = 1300Mbps
*.switch8.eth[15].bitrate = 1900Mbps
*.switch8.eth[16].bitrate = 2300Mbps
*.switch8.eth[17].bitrate = 1400Mbps
*.switch8.eth[18].bitrate = 1200Mbps
*.switch8.eth[19].bitrate = 1800Mbps
*.host9.eth[0].bitrate = 1000Mbps
*.switch9.eth[0].bitrate = 1000Mbps
*.switch9.eth[1].bitrate = 1700Mbps
*.switch9.eth[2].bitrate = 2300Mbps
*.switch9.eth[3].bitrate = 1700Mbps
*.switch9.eth[4].bitrate = 1900Mbps
*.switch9.eth[5].bitrate = 1400Mbps
*.switch9.eth[6].bitrate = 2000Mbps
*.switch9.eth[7].bitrate = 2400Mbps
*.switch9.eth[8].bitrate = 1600Mbps
*.switch9.eth[9].bitrate = 1900Mbps
*.switch9.eth[10].bitrate = 1600Mbps
*.switch9.eth[11].bitrate = 1200Mbps
*.switch9.eth[12].bitrate = 2000Mbps
*.host10.eth[0].bitrate = 1000Mbps
*.switch10.eth[0].bitrate = 1000Mbps
*.switch10.eth[1].bitrate = 2100Mbps
*.switch10.eth[2].bitrate = 2400Mbps
*.switch10.eth[3].bitrate = 1800Mbps
*.switch10.eth[4].bitrate = 2000Mbps
*.switch10.eth[5].bitrate = 1900Mbps
*.switch10.eth[6].bitrate = 1200Mbps
*.switch10.eth[7].bitrate = 2000Mbps
*.switch10.eth[8].bitrate = 2300Mbps
*.switch10.eth[9].bitrate = 2000Mbps
*.switch10.eth[10].bitrate = 2400Mbps
*.host11.eth[0].bitrate = 1000Mbps
*.switch11.eth[0].bitrate = 1000Mbps
*.switch11.eth[1].bitrate = 2300Mbps
*.switch11.eth[2].bitrate = 2000Mbps
*.switch11.eth[3].bitrate = 1700Mbps
*.switch11.eth[4].bitrate = 1700Mbps
*.switch11.eth[5].bitrate = 2100Mbps
*.switch11.eth[6].bitrate = 2100Mbps
*.switch11.eth[7].bitrate = 2400Mbps
*.switch11.eth[8].bitrate = 2000Mbps
*.switch11.eth[9].bitrate = 2300Mbps
*.switch11.eth[10].bitrate = 1900Mbps
*.switch11.eth[11].bitrate = 2000Mbps
*.switch11.eth[12].bitrate = 1800Mbps
*.switch11.eth[13].bitrate = 1400Mbps
*.switch11.eth[14].bitrate = 2400Mbps
*.host12.eth[0].bitrate = 1000Mbps
*.switch12.eth[0].bitrate = 1000Mbps
*.switch12.eth[1].bitrate = 1300Mbps
*.switch12.eth[2].bitrate = 2200Mbps
*.switch12.eth[3].bitrate = 1600Mbps
*.switch12.eth[4].bitrate = 2100Mbps
*.switch12.eth[5].bitrate = 2000Mbps
*.switch12.eth[6].bitrate = 1600Mbps
*.switch12.eth[7].bitrate = 1600Mbps
*.switch12.eth[8].bitrate = 2400Mbps
*.switch12.eth[9].bitrate = 2400Mbps
*.switch12.eth[10].bitrate = 1500Mbps
*.switch12.eth[11].bitrate = 2200Mbps
*.switch12.eth[12].bitrate = 2200Mbps
*.switch12.eth[13].bitrate = 1300Mbps
*.switch12.eth[14].bitrate = 2300Mbps
*.switch12.eth[15].bitrate = 1200Mbps
*.switch12.eth[16].bitrate = 1200Mbps
*.switch12.eth[17].bitrate = 2400Mbps
*.switch12.eth[18].bitrate = 2400Mbps
*.switch12.eth[19].bitrate = 1800Mbps
*.host13.eth[0].bitrate = 1000Mbps
*.switch13.eth[0].bitrate = 1000Mbps
*.switch13.eth[1].bitrate = 1700Mbps
*.switch13.eth[2].bitrate = 2300Mbps
*.switch13.eth[3].bitrate = 1900Mbps
*.switch13.eth[4].bitrate = 2400Mbps
*.switch13.eth[5].bitrate = 2400Mbps
*.switch13.eth[6].bitrate = 1300Mbps
*.switch13.eth[7].bitrate = 1600Mbps
*.switch13.eth[8].bitrate = 2400Mbps
*.switch13.eth[9].bitrate = 2100Mbps
*.host14.eth[0].bitrate = 1000Mbps
*.switch14.eth[0].bitrate = 1000Mbps
*.switch14.eth[1].bitrate = 1700Mbps
*.switch14.eth[2].bitrate = 1900Mbps
*.switch14.eth[3].bitrate = 2100Mbps
*.switch14.eth[4].bitrate = 2000Mbps
*.switch14.eth[5].bitrate = 1700Mbps
*.switch14.eth[6].bitrate = 1800Mbps
*.switch14.eth[7].bitrate = 1300Mbps
*.switch14.eth[8].bitrate = 1800Mbps
*.switch14.eth[9].bitrate = 1900Mbps
*.switch14.eth[10].bitrate = 1500Mbps
*.switch14.eth[11].bitrate = 1900Mbps
*.switch14.eth[12].bitrate = 1300Mbps
*.switch14.eth[13].bitrate = 1800Mbps
*.switch14.eth[14].bitrate = 1400Mbps
*.switch14.eth[15].bitrate = 1800Mbps
*.switch14.eth[16].bitrate = 2000Mbps
*.switch14.eth[17].bitrate = 2100Mbps
*.host0.numApps = 9
*.host0.app[0].typename = "UdpSinkApp"
*.host0.app[0].io.localPort = 1000
*.host0.app[1].typename = "UdpBasicApp"
*.host0.app[1].destAddresses = "host9"
*.host0.app[1].source.packetNameFormat = "%M-%m-%c"
*.host0.app[1].source.displayStringTextFormat = "sent %p pk (%l)"
*.host0.app[1].messageLength = 18B
*.host0.app[1].sendInterval = 1ms
*.host0.app[1].startTime = 11ms
*.host0.app[1].stopTime = 26ms
*.host0.app[1].display-name = "type2_1"
*.host0.app[1].destPort = 1000
*.host0.app[2].typename = "UdpBasicApp"
*.host0.app[2].destAddresses = "host9"
*.host0.app[2].source.packetNameFormat = "%M-%m-%c"
*.host0.app[2].source.displayStringTextFormat = "sent %p pk (%l)"
*.host0.app[2].messageLength = 18B
*.host0.app[2].sendInterval = 1ms
*.host0.app[2].startTime = 33ms
*.host0.app[2].stopTime = 60ms
*.host0.app[2].display-name = "type2_1"
*.host0.app[2].destPort = 1000
*.host0.app[3].typename = "UdpBasicApp"
*.host0.app[3].destAddresses = "host9"
*.host0.app[3].source.packetNameFormat = "%M-%m-%c"
*.host0.app[3].source.displayStringTextFormat = "sent %p pk (%l)"
*.host0.app[3].messageLength = 18B
*.host0.app[3].sendInterval = 1ms
*.host0.app[3].startTime = 70ms
*.host0.app[3].stopTime = 76ms
*.host0.app[3].display-name = "type2_1"
*.host0.app[3].destPort = 1000
*.host0.app[4].typename = "UdpBasicApp"
*.host0.app[4].destAddresses = "host9"
*.host0.app[4].source.packetNameFormat = "%M-%m-%c"
*.host0.app[4].source.displayStringTextFormat = "sent %p pk (%l)"
*.host0.app[4].messageLength = 18B
*.host0.app[4].sendInterval = 1ms
*.host0.app[4].startTime = 93ms
*.host0.app[4].stopTime = 100ms
*.host0.app[4].display-name = "type2_1"
*.host0.app[4].destPort = 1000
*.host0.app[5].typename = "UdpBasicApp"
*.host0.app[5].destAddresses = "host1"
*.host0.app[5].source.packetNameFormat = "%M-%m-%c"
*.host0.app[5].source.displayStringTextFormat = "sent %p pk (%l)"
*.host0.app[5].messageLength = 13B
*.host0.app[5].sendInterval = 1ms
*.host0.app[5].startTime = 1ms
*.host0.app[5].stopTime = 38ms
*.host0.app[5].display-name = "type2_8"
*.host0.app[5].destPort = 1003
*.host0.app[6].typename = "UdpBasicApp"
*.host0.app[6].destAddresses = "host1"
*.host0.app[6].source.packetNameFormat = "%M-%m-%c"
*.host0.app[6].source.displayStringTextFormat = "sent %p pk (%l)"
*.host0.app[6].messageLength = 13B
*.host0.app[6].sendInterval = 1ms
*.host0.app[6].startTime = 48ms
*.host0.app[6].stopTime = 66ms
*.host0.app[6].display-name = "type2_8"
*.host0.app[6].destPort = 1003
*.host0.app[7].typename = "UdpBasicApp"
*.host0.app[7].destAddresses = "host1"
*.host0.app[7].source.packetNameFormat = "%M-%m-%c"
*.host0.app[7].source.displayStringTextFormat = "sent %p pk (%l)"
*.host0.app[7].messageLength = 13B
*.host0.app[7].sendInterval = 1ms
*.host0.app[7].startTime = 67ms
*.host0.app[7].stopTime = 84ms
*.host0.app[7].display-name = "type2_8"
*.host0.app[7].destPort = 1003
*.host0.app[8].typename = "UdpBasicApp"
*.host0.app[8].destAddresses = "host1"
*.host0.app[8].source.packetNameFormat = "%M-%m-%c"
*.host0.app[8].source.displayStringTextFormat = "sent %p pk (%l)"
*.host0.app[8].messageLength = 13B
*.host0.app[8].sendInterval = 1ms
*.host0.app[8].startTime = 94ms
*.host0.app[8].stopTime = 98ms
*.host0.app[8].display-name = "type2_8"
*.host0.app[8].destPort = 1003
*.host1.numApps = 10
*.host1.app[0].typename = "UdpSinkApp"
*.host1.app[0].io.localPort = 1000
*.host1.app[1].typename = "UdpSinkApp"
*.host1.app[1].io.localPort = 1001
*.host1.app[2].typename = "UdpSinkApp"
*.host1.app[2].io.localPort = 1002
*.host1.app[3].typename = "UdpSinkApp"
*.host1.app[3].io.localPort = 1003
*.host1.app[4].typename = "UdpBasicApp"
*.host1.app[4].destAddresses = "host3"
*.host1.app[4].source.packetNameFormat = "%M-%m-%c"
*.host1.app[4].source.displayStringTextFormat = "sent %p pk (%l)"
*.host1.app[4].messageLength = 19B
*.host1.app[4].sendInterval = 1ms
*.host1.app[4].startTime = 16ms
*.host1.app[4].stopTime = 17ms
*.host1.app[4].display-name = "type2_11"
*.host1.app[4].destPort = 1002
*.host1.app[5].typename = "UdpBasicApp"
*.host1.app[5].destAddresses = "host3"
*.host1.app[5].source.packetNameFormat = "%M-%m-%c"
*.host1.app[5].source.displayStringTextFormat = "sent %p pk (%l)"
*.host1.app[5].messageLength = 19B
*.host1.app[5].sendInterval = 1ms
*.host1.app[5].startTime = 18ms
*.host1.app[5].stopTime = 22ms
*.host1.app[5].display-name = "type2_11"
*.host1.app[5].destPort = 1002
*.host1.app[6].typename = "UdpBasicApp"
*.host1.app[6].destAddresses = "host3"
*.host1.app[6].source.packetNameFormat = "%M-%m-%c"
*.host1.app[6].source.displayStringTextFormat = "sent %p pk (%l)"
*.host1.app[6].messageLength = 19B
*.host1.app[6].sendInterval = 1ms
*.host1.app[6].startTime = 47ms
*.host1.app[6].stopTime = 48ms
*.host1.app[6].display-name = "type2_11"
*.host1.app[6].destPort = 1002
*.host1.app[7].typename = "UdpBasicApp"
*.host1.app[7].destAddresses = "host3"
*.host1.app[7].source.packetNameFormat = "%M-%m-%c"
*.host1.app[7].source.displayStringTextFormat = "sent %p pk (%l)"
*.host1.app[7].messageLength = 19B
*.host1.app[7].sendInterval = 1ms
*.host1.app[7].startTime = 73ms
*.host1.app[7].stopTime = 74ms
*.host1.app[7].display-name = "type2_11"
*.host1.app[7].destPort = 1002
*.host1.app[8].typename = "UdpBasicApp"
*.host1.app[8].destAddresses = "host3"
*.host1.app[8].source.packetNameFormat = "%M-%m-%c"
*.host1.app[8].source.displayStringTextFormat = "sent %p pk (%l)"
*.host1.app[8].messageLength = 19B
*.host1.app[8].sendInterval = 1ms
*.host1.app[8].startTime = 88ms
*.host1.app[8].stopTime = 94ms
*.host1.app[8].display-name = "type2_11"
*.host1.app[8].destPort = 1002
*.host1.app[9].typename = "UdpBasicApp"
*.host1.app[9].destAddresses = "host3"
*.host1.app[9].source.packetNameFormat = "%M-%m-%c"
*.host1.app[9].source.displayStringTextFormat = "sent %p pk (%l)"
*.host1.app[9].messageLength = 19B
*.host1.app[9].sendInterval = 1ms
*.host1.app[9].startTime = 97ms
*.host1.app[9].stopTime = 100ms
*.host1.app[9].display-name = "type2_11"
*.host1.app[9].destPort = 1002
*.host2.numApps = 10
*.host2.app[0].typename = "UdpSinkApp"
*.host2.app[0].io.localPort = 1000
*.host2.app[1].typename = "UdpBasicApp"
*.host2.app[1].destAddresses = "host4"
*.host2.app[1].source.packetNameFormat = "%M-%m-%c"
*.host2.app[1].source.displayStringTextFormat = "sent %p pk (%l)"
*.host2.app[1].messageLength = 17B
*.host2.app[1].sendInterval = 1ms
*.host2.app[1].startTime = 14ms
*.host2.app[1].stopTime = 29ms
*.host2.app[1].display-name = "type2_4"
*.host2.app[1].destPort = 1000
*.host2.app[2].typename = "UdpBasicApp"
*.host2.app[2].destAddresses = "host4"
*.host2.app[2].source.packetNameFormat = "%M-%m-%c"
*.host2.app[2].source.displayStringTextFormat = "sent %p pk (%l)"
*.host2.app[2].messageLength = 17B
*.host2.app[2].sendInterval = 1ms
*.host2.app[2].startTime = 35ms
*.host2.app[2].stopTime = 43ms
*.host2.app[2].display-name = "type2_4"
*.host2.app[2].destPort = 1000
*.host2.app[3].typename = "UdpBasicApp"
*.host2.app[3].destAddresses = "host4"
*.host2.app[3].source.packetNameFormat = "%M-%m-%c"
*.host2.app[3].source.displayStringTextFormat = "sent %p pk (%l)"
*.host2.app[3].messageLength = 17B
*.host2.app[3].sendInterval = 1ms
*.host2.app[3].startTime = 55ms
*.host2.app[3].stopTime = 57ms
*.host2.app[3].display-name = "type2_4"
*.host2.app[3].destPort = 1000
*.host2.app[4].typename = "UdpBasicApp"
*.host2.app[4].destAddresses = "host4"
*.host2.app[4].source.packetNameFormat = "%M-%m-%c"
*.host2.app[4].source.displayStringTextFormat = "sent %p pk (%l)"
*.host2.app[4].messageLength = 17B
*.host2.app[4].sendInterval = 1ms
*.host2.app[4].startTime = 72ms
*.host2.app[4].stopTime = 82ms
*.host2.app[4].display-name = "type2_4"
*.host2.app[4].destPort = 1000
*.host2.app[5].typename = "UdpBasicApp"
*.host2.app[5].destAddresses = "host4"
*.host2.app[5].source.packetNameFormat = "%M-%m-%c"
*.host2.app[5].source.displayStringTextFormat = "sent %p pk (%l)"
*.host2.app[5].messageLength = 17B
*.host2.app[5].sendInterval = 1ms
*.host2.app[5].startTime = 88ms
*.host2.app[5].stopTime = 91ms
*.host2.app[5].display-name = "type2_4"
*.host2.app[5].destPort = 1000
*.host2.app[6].typename = "UdpBasicApp"
*.host2.app[6].destAddresses = "host4"
*.host2.app[6].source.packetNameFormat = "%M-%m-%c"
*.host2.app[6].source.displayStringTextFormat = "sent %p pk (%l)"
*.host2.app[6].messageLength = 13B
*.host2.app[6].sendInterval = 1ms
*.host2.app[6].startTime = 5ms
*.host2.app[6].stopTime = 9ms
*.host2.app[6].display-name = "type2_6"
*.host2.app[6].destPort = 1001
*.host2.app[7].typename = "UdpBasicApp"
*.host2.app[7].destAddresses = "host4"
*.host2.app[7].source.packetNameFormat = "%M-%m-%c"
*.host2.app[7].source.displayStringTextFormat = "sent %p pk (%l)"
*.host2.app[7].messageLength = 13B
*.host2.app[7].sendInterval = 1ms
*.host2.app[7].startTime = 15ms
*.host2.app[7].stopTime = 32ms
*.host2.app[7].display-name = "type2_6"
*.host2.app[7].destPort = 1001
*.host2.app[8].typename = "UdpBasicApp"
*.host2.app[8].destAddresses = "host4"
*.host2.app[8].source.packetNameFormat = "%M-%m-%c"
*.host2.app[8].source.displayStringTextFormat = "sent %p pk (%l)"
*.host2.app[8].messageLength = 13B
*.host2.app[8].sendInterval = 1ms
*.host2.app[8].startTime = 44ms
*.host2.app[8].stopTime = 58ms
*.host2.app[8].display-name = "type2_6"
*.host2.app[8].destPort = 1001
*.host2.app[9].typename = "UdpBasicApp"
*.host2.app[9].destAddresses = "host4"
*.host2.app[9].source.packetNameFormat = "%M-%m-%c"
*.host2.app[9].source.displayStringTextFormat = "sent %p pk (%l)"
*.host2.app[9].messageLength = 13B
*.host2.app[9].sendInterval = 1ms
*.host2.app[9].startTime = 68ms
*.host2.app[9].stopTime = 85ms
*.host2.app[9].display-name = "type2_6"
*.host2.app[9].destPort = 1001
*.host3.numApps = 10
*.host3.app[0].typename = "UdpSinkApp"
*.host3.app[0].io.localPort = 1000
*.host3.app[1].typename = "UdpSinkApp"
*.host3.app[1].io.localPort = 1001
*.host3.app[2].typename = "UdpBasicApp"
*.host3.app[2].destAddresses = "host4"
*.host3.app[2].source.packetNameFormat = "%M-%m-%c"
*.host3.app[2].source.displayStringTextFormat = "sent %p pk (%l)"
*.host3.app[2].messageLength = 20B
*.host3.app[2].sendInterval = 1ms
*.host3.app[2].startTime = 3ms
*.host3.app[2].stopTime = 15ms
*.host3.app[2].display-name = "type2_10"
*.host3.app[2].destPort = 1002
*.host3.app[3].typename = "UdpBasicApp"
*.host3.app[3].destAddresses = "host4"
*.host3.app[3].source.packetNameFormat = "%M-%m-%c"
*.host3.app[3].source.displayStringTextFormat = "sent %p pk (%l)"
*.host3.app[3].messageLength = 20B
*.host3.app[3].sendInterval = 1ms
*.host3.app[3].startTime = 21ms
*.host3.app[3].stopTime = 35ms
*.host3.app[3].display-name = "type2_10"
*.host3.app[3].destPort = 1002
*.host3.app[4].typename = "UdpBasicApp"
*.host3.app[4].destAddresses = "host4"
*.host3.app[4].source.packetNameFormat = "%M-%m-%c"
*.host3.app[4].source.displayStringTextFormat = "sent %p pk (%l)"
*.host3.app[4].messageLength = 20B
*.host3.app[4].sendInterval = 1ms
*.host3.app[4].startTime = 37ms
*.host3.app[4].stopTime = 43ms
*.host3.app[4].display-name = "type2_10"
*.host3.app[4].destPort = 1002
*.host3.app[5].typename = "UdpBasicApp"
*.host3.app[5].destAddresses = "host4"
*.host3.app[5].source.packetNameFormat = "%M-%m-%c"
*.host3.app[5].source.displayStringTextFormat = "sent %p pk (%l)"
*.host3.app[5].messageLength = 20B
*.host3.app[5].sendInterval = 1ms
*.host3.app[5].startTime = 51ms
*.host3.app[5].stopTime = 71ms
*.host3.app[5].display-name = "type2_10"
*.host3.app[5].destPort = 1002
*.host3.app[6].typename = "UdpBasicApp"
*.host3.app[6].destAddresses = "host4"
*.host3.app[6].source.packetNameFormat = "%M-%m-%c"
*.host3.app[6].source.displayStringTextFormat = "sent %p pk (%l)"
*.host3.app[6].messageLength = 20B
*.host3.app[6].sendInterval = 1ms
*.host3.app[6].startTime = 73ms
*.host3.app[6].stopTime = 78ms
*.host3.app[6].display-name = "type2_10"
*.host3.app[6].destPort = 1002
*.host3.app[7].typename = "UdpBasicApp"
*.host3.app[7].destAddresses = "host4"
*.host3.app[7].source.packetNameFormat = "%M-%m-%c"
*.host3.app[7].source.displayStringTextFormat = "sent %p pk (%l)"
*.host3.app[7].messageLength = 20B
*.host3.app[7].sendInterval = 1ms
*.host3.app[7].startTime = 85ms
*.host3.app[7].stopTime = 92ms
*.host3.app[7].display-name = "type2_10"
*.host3.app[7].destPort = 1002
*.host3.app[8].typename = "UdpBasicApp"
*.host3.app[8].destAddresses = "host4"
*.host3.app[8].source.packetNameFormat = "%M-%m-%c"
*.host3.app[8].source.displayStringTextFormat = "sent %p pk (%l)"
*.host3.app[8].messageLength = 20B
*.host3.app[8].sendInterval = 1ms
*.host3.app[8].startTime = 95ms
*.host3.app[8].stopTime = 100ms
*.host3.app[8].display-name = "type2_10"
*.host3.app[8].destPort = 1002
*.host3.app[9].typename = "UdpSinkApp"
*.host3.app[9].io.localPort = 1002
*.host4.numApps = 9
*.host4.app[0].typename = "UdpSinkApp"
*.host4.app[0].io.localPort = 1000
*.host4.app[1].typename = "UdpSinkApp"
*.host4.app[1].io.localPort = 1001
*.host4.app[2].typename = "UdpBasicApp"
*.host4.app[2].destAddresses = "host1"
*.host4.app[2].source.packetNameFormat = "%M-%m-%c"
*.host4.app[2].source.displayStringTextFormat = "sent %p pk (%l)"
*.host4.app[2].messageLength = 14B
*.host4.app[2].sendInterval = 1ms
*.host4.app[2].startTime = 1ms
*.host4.app[2].stopTime = 2ms
*.host4.app[2].display-name = "type2_7"
*.host4.app[2].destPort = 1002
*.host4.app[3].typename = "UdpBasicApp"
*.host4.app[3].destAddresses = "host1"
*.host4.app[3].source.packetNameFormat = "%M-%m-%c"
*.host4.app[3].source.displayStringTextFormat = "sent %p pk (%l)"
*.host4.app[3].messageLength = 14B
*.host4.app[3].sendInterval = 1ms
*.host4.app[3].startTime = 4ms
*.host4.app[3].stopTime = 14ms
*.host4.app[3].display-name = "type2_7"
*.host4.app[3].destPort = 1002
*.host4.app[4].typename = "UdpBasicApp"
*.host4.app[4].destAddresses = "host1"
*.host4.app[4].source.packetNameFormat = "%M-%m-%c"
*.host4.app[4].source.displayStringTextFormat = "sent %p pk (%l)"
*.host4.app[4].messageLength = 14B
*.host4.app[4].sendInterval = 1ms
*.host4.app[4].startTime = 47ms
*.host4.app[4].stopTime = 63ms
*.host4.app[4].display-name = "type2_7"
*.host4.app[4].destPort = 1002
*.host4.app[5].typename = "UdpBasicApp"
*.host4.app[5].destAddresses = "host1"
*.host4.app[5].source.packetNameFormat = "%M-%m-%c"
*.host4.app[5].source.displayStringTextFormat = "sent %p pk (%l)"
*.host4.app[5].messageLength = 14B
*.host4.app[5].sendInterval = 1ms
*.host4.app[5].startTime = 65ms
*.host4.app[5].stopTime = 68ms
*.host4.app[5].display-name = "type2_7"
*.host4.app[5].destPort = 1002
*.host4.app[6].typename = "UdpBasicApp"
*.host4.app[6].destAddresses = "host1"
*.host4.app[6].source.packetNameFormat = "%M-%m-%c"
*.host4.app[6].source.displayStringTextFormat = "sent %p pk (%l)"
*.host4.app[6].messageLength = 14B
*.host4.app[6].sendInterval = 1ms
*.host4.app[6].startTime = 79ms
*.host4.app[6].stopTime = 82ms
*.host4.app[6].display-name = "type2_7"
*.host4.app[6].destPort = 1002
*.host4.app[7].typename = "UdpBasicApp"
*.host4.app[7].destAddresses = "host1"
*.host4.app[7].source.packetNameFormat = "%M-%m-%c"
*.host4.app[7].source.displayStringTextFormat = "sent %p pk (%l)"
*.host4.app[7].messageLength = 14B
*.host4.app[7].sendInterval = 1ms
*.host4.app[7].startTime = 91ms
*.host4.app[7].stopTime = 100ms
*.host4.app[7].display-name = "type2_7"
*.host4.app[7].destPort = 1002
*.host4.app[8].typename = "UdpSinkApp"
*.host4.app[8].io.localPort = 1002
*.host5.numApps = 2
*.host5.app[0].typename = "UdpSourceApp"
*.host5.app[0].io.destAddress = "host14"
*.host5.app[0].source.packetNameFormat = "%M-%m-%c"
*.host5.app[0].source.displayStringTextFormat = "sent %p pk (%l)"
*.host5.app[0].source.packetLength = 24B
*.host5.app[0].source.productionInterval = 1ms
*.host5.app[0].display-name = "type1_0"
*.host5.app[0].io.destPort = 1000
*.host5.app[1].typename = "UdpSourceApp"
*.host5.app[1].io.destAddress = "host3"
*.host5.app[1].source.packetNameFormat = "%M-%m-%c"
*.host5.app[1].source.displayStringTextFormat = "sent %p pk (%l)"
*.host5.app[1].source.packetLength = 15B
*.host5.app[1].source.productionInterval = 1ms
*.host5.app[1].display-name = "type1_1"
*.host5.app[1].io.destPort = 1000
*.host6.numApps = 1
*.host6.app[0].typename = "UdpSourceApp"
*.host6.app[0].io.destAddress = "host2"
*.host6.app[0].source.packetNameFormat = "%M-%m-%c"
*.host6.app[0].source.displayStringTextFormat = "sent %p pk (%l)"
*.host6.app[0].source.packetLength = 16B
*.host6.app[0].source.productionInterval = 1ms
*.host6.app[0].display-name = "type1_2"
*.host6.app[0].io.destPort = 1000
*.host7.numApps = 0
*.host8.numApps = 0
*.host9.numApps = 9
*.host9.app[0].typename = "UdpSinkApp"
*.host9.app[0].io.localPort = 1000
*.host9.app[1].typename = "UdpBasicApp"
*.host9.app[1].destAddresses = "host3"
*.host9.app[1].source.packetNameFormat = "%M-%m-%c"
*.host9.app[1].source.displayStringTextFormat = "sent %p pk (%l)"
*.host9.app[1].messageLength = 15B
*.host9.app[1].sendInterval = 1ms
*.host9.app[1].startTime = 3ms
*.host9.app[1].stopTime = 10ms
*.host9.app[1].display-name = "type2_9"
*.host9.app[1].destPort = 1001
*.host9.app[2].typename = "UdpBasicApp"
*.host9.app[2].destAddresses = "host3"
*.host9.app[2].source.packetNameFormat = "%M-%m-%c"
*.host9.app[2].source.displayStringTextFormat = "sent %p pk (%l)"
*.host9.app[2].messageLength = 15B
*.host9.app[2].sendInterval = 1ms
*.host9.app[2].startTime = 17ms
*.host9.app[2].stopTime = 36ms
*.host9.app[2].display-name = "type2_9"
*.host9.app[2].destPort = 1001
*.host9.app[3].typename = "UdpBasicApp"
*.host9.app[3].destAddresses = "host3"
*.host9.app[3].source.packetNameFormat = "%M-%m-%c"
*.host9.app[3].source.displayStringTextFormat = "sent %p pk (%l)"
*.host9.app[3].messageLength = 15B
*.host9.app[3].sendInterval = 1ms
*.host9.app[3].startTime = 44ms
*.host9.app[3].stopTime = 49ms
*.host9.app[3].display-name = "type2_9"
*.host9.app[3].destPort = 1001
*.host9.app[4].typename = "UdpBasicApp"
*.host9.app[4].destAddresses = "host3"
*.host9.app[4].source.packetNameFormat = "%M-%m-%c"
*.host9.app[4].source.displayStringTextFormat = "sent %p pk (%l)"
*.host9.app[4].messageLength = 15B
*.host9.app[4].sendInterval = 1ms
*.host9.app[4].startTime = 53ms
*.host9.app[4].stopTime = 60ms
*.host9.app[4].display-name = "type2_9"
*.host9.app[4].destPort = 1001
*.host9.app[5].typename = "UdpBasicApp"
*.host9.app[5].destAddresses = "host3"
*.host9.app[5].source.packetNameFormat = "%M-%m-%c"
*.host9.app[5].source.displayStringTextFormat = "sent %p pk (%l)"
*.host9.app[5].messageLength = 15B
*.host9.app[5].sendInterval = 1ms
*.host9.app[5].startTime = 61ms
*.host9.app[5].stopTime = 63ms
*.host9.app[5].display-name = "type2_9"
*.host9.app[5].destPort = 1001
*.host9.app[6].typename = "UdpBasicApp"
*.host9.app[6].destAddresses = "host3"
*.host9.app[6].source.packetNameFormat = "%M-%m-%c"
*.host9.app[6].source.displayStringTextFormat = "sent %p pk (%l)"
*.host9.app[6].messageLength = 15B
*.host9.app[6].sendInterval = 1ms
*.host9.app[6].startTime = 67ms
*.host9.app[6].stopTime = 73ms
*.host9.app[6].display-name = "type2_9"
*.host9.app[6].destPort = 1001
*.host9.app[7].typename = "UdpBasicApp"
*.host9.app[7].destAddresses = "host3"
*.host9.app[7].source.packetNameFormat = "%M-%m-%c"
*.host9.app[7].source.displayStringTextFormat = "sent %p pk (%l)"
*.host9.app[7].messageLength = 15B
*.host9.app[7].sendInterval = 1ms
*.host9.app[7].startTime = 76ms
*.host9.app[7].stopTime = 90ms
*.host9.app[7].display-name = "type2_9"
*.host9.app[7].destPort = 1001
*.host9.app[8].typename = "UdpBasicApp"
*.host9.app[8].destAddresses = "host3"
*.host9.app[8].source.packetNameFormat = "%M-%m-%c"
*.host9.app[8].source.displayStringTextFormat = "sent %p pk (%l)"
*.host9.app[8].messageLength = 15B
*.host9.app[8].sendInterval = 1ms
*.host9.app[8].startTime = 92ms
*.host9.app[8].stopTime = 100ms
*.host9.app[8].display-name = "type2_9"
*.host9.app[8].destPort = 1001
*.host10.numApps = 5
*.host10.app[0].typename = "UdpBasicApp"
*.host10.app[0].destAddresses = "host1"
*.host10.app[0].source.packetNameFormat = "%M-%m-%c"