[General]
network = TSN_multipath
sim-time-limit = 100ms
*.macForwardingTableConfigurator.typename = ""
*.*.hasStreamRedundancy = true
*.*.bridging.streamRelay.typename = "StreamRelayLayer"
*.*.bridging.streamCoder.typename = "StreamCoderLayer"
*.streamRedundancyConfigurator.typename = "StreamRedundancyConfigurator"
*.host0.eth[0].bitrate = 1000Mbps
*.switch0.eth[0].bitrate = 1000Mbps
*.switch0.eth[1].bitrate = 1300Mbps
*.switch0.eth[2].bitrate = 2000Mbps
*.switch0.eth[3].bitrate = 1800Mbps
*.switch0.eth[4].bitrate = 2400Mbps
*.switch0.eth[5].bitrate = 2100Mbps
*.switch0.eth[6].bitrate = 2200Mbps
*.switch0.eth[7].bitrate = 1600Mbps
*.switch0.eth[8].bitrate = 2000Mbps
*.switch0.eth[9].bitrate = 2100Mbps
*.switch0.eth[10].bitrate = 2000Mbps
*.switch0.eth[11].bitrate = 2100Mbps
*.switch0.eth[12].bitrate = 1800Mbps
*.host1.eth[0].bitrate = 1000Mbps
*.switch1.eth[0].bitrate = 1000Mbps
*.switch1.eth[1].bitrate = 1900Mbps
*.switch1.eth[2].bitrate = 1700Mbps
*.switch1.eth[3].bitrate = 1600Mbps
*.switch1.eth[4].bitrate = 2100Mbps
*.switch1.eth[5].bitrate = 2200Mbps
*.switch1.eth[6].bitrate = 2100Mbps
*.switch1.eth[7].bitrate = 2100Mbps
*.switch1.eth[8].bitrate = 1400Mbps
*.switch1.eth[9].bitrate = 2400Mbps
*.switch1.eth[10].bitrate = 2400Mbps
*.switch1.eth[11].bitrate = 1200Mbps
*.host2.eth[0].bitrate = 1000Mbps
*.switch2.eth[0].bitrate = 1000Mbps
*.switch2.eth[1].bitrate = 1900Mbps
*.switch2.eth[2].bitrate = 1400Mbps
*.switch2.eth[3].bitrate = 1600Mbps
*.switch2.eth[4].bitrate = 2300Mbps
*.switch2.eth[5].bitrate = 1700Mbps
*.switch2.eth[6].bitrate = 2400Mbps
*.switch2.eth[7].bitrate = 1400Mbps
*.switch2.eth[8].bitrate = 2200Mbps
*.switch2.eth[9].bitrate = 2300Mbps
*.switch2.eth[10].bitrate = 1500Mbps
*.switch2.eth[11].bitrate = 1400Mbps
*.switch2.eth[12].bitrate = 1400Mbps
*.switch2.eth[13].bitrate = 1200Mbps
*.switch2.eth[14].bitrate = 1800Mbps
*.switch2.eth[15].bitrate = 2300Mbps
*.switch2.eth[16].bitrate = 2300Mbps
*.switch2.eth[17].bitrate = 1600Mbps
*.host3.eth[0].bitrate = 1000Mbps
*.switch3.eth[0].bitrate = 1000Mbps
*.switch3.eth[1].bitrate = 2400Mbps
*.switch3.eth[2].bitrate = 1700Mbps
*.switch3.eth[3].bitrate = 2400Mbps
*.switch3.eth[4].bitrate = 2300Mbps
*.switch3.eth[5].bitrate = 1900Mbps
*.switch3.eth[6].bitrate = 1300Mbps
*.switch3.eth[7].bitrate = 2000Mbps
*.switch3.eth[8].bitrate = 1500Mbps
*.switch3.eth[9].bitrate = 2100Mbps
*.switch3.eth[10].bitrate = 2400Mbps
*.switch3.eth[11].bitrate = 1400Mbps
*.switch3.eth[12].bitrate = 1700Mbps
*.switch3.eth[13].bitrate = 1500Mbps
*.switch3.eth[14].bitrate = 1200Mbps
*.switch3.eth[15].bitrate = 1500Mbps
*.switch3.eth[16].bitrate = 2000Mbps
*.switch3.eth[17].bitrate = 1900Mbps
*.switch3.eth[18].bitrate = 1200Mbps
*.switch3.eth[19].bitrate = 2000Mbps
*.switch3.eth[20].bitrate = 2200Mbps
*.switch3.eth[21].bitrate = 1700Mbps
*.switch3.eth[22].bitrate = 1300Mbps
*.switch3.eth[23].bitrate = 1400Mbps
*.switch3.eth[24].bitrate = 2100Mbps
*.switch3.eth[25].bitrate = 2000Mbps
*.switch3.eth[26].bitrate = 1500Mbps
*.host4.eth[0].bitrate = 1000Mbps
*.switch4.eth[0].bitrate = 1000Mbps
*.switch4.eth[1].bitrate = 2300Mbps
*.switch4.eth[2].bitrate = 1600Mbps
*.switch4.eth[3].bitrate = 1400Mbps
*.switch4.eth[4].bitrate = 1200Mbps
*.switch4.eth[5].bitrate = 2400Mbps
*.switch4.eth[6].bitrate = 1600Mbps
*.switch4.eth[7].bitrate = 2000Mbps
*.switch4.eth[8].bitrate = 2100Mbps
*.switch4.eth[9].bitrate = 2400Mbps
*.switch4.eth[10].bitrate = 2200Mbps
*.switch4.eth[11].bitrate = 1300Mbps
*.switch4.eth[12].bitrate = 1600Mbps
*.switch4.eth[13].bitrate = 1600Mbps
*.switch4.eth[14].bitrate = 2000Mbps
*.switch4.eth[15].bitrate = 1600Mbps
*.switch4.eth[16].bitrate = 1200Mbps
*.switch4.eth[17].bitrate = 2400Mbps
*.switch4.eth[18].bitrate = 1900Mbps
*.switch4.eth[19].bitrate = 1200Mbps
*.switch4.eth[20].bitrate = 1800Mbps
*.switch4.eth[21].bitrate = 2000Mbps
*.switch4.eth[22].bitrate = 2300Mbps
*.host5.eth[0].bitrate = 1000Mbps
*.switch5.eth[0].bitrate = 1000Mbps
*.switch5.eth[1].bitrate = 1900Mbps
*.switch5.eth[2].bitrate = 1900Mbps
*.switch5.eth[3].bitrate = 1600Mbps
*.switch5.eth[4].bitrate = 1900Mbps
*.switch5.eth[5].bitrate = 2100Mbps
*.switch5.eth[6].bitrate = 1900Mbps
*.switch5.eth[7].bitrate = 1200Mbps
*.switch5.eth[8].bitrate = 1200Mbps
*.switch5.eth[9].bitrate = 2300Mbps
*.switch5.eth[10].bitrate = 1900Mbps
*.host6.eth[0].bitrate = 1000Mbps
*.switch6.eth[0].bitrate = 1000Mbps
*.switch6.eth[1].bitrate = 1300Mbps
*.switch6.eth[2].bitrate = 2000Mbps
*.switch6.eth[3].bitrate = 2400Mbps
*.switch6.eth[4].bitrate = 1800Mbps
*.switch6.eth[5].bitrate = 1500Mbps
*.switch6.eth[6].bitrate = 1500Mbps
*.switch6.eth[7].bitrate = 1300Mbps
*.switch6.eth[8].bitrate = 2400Mbps
*.switch6.eth[9].bitrate = 2400Mbps
*.switch6.eth[10].bitrate = 1800Mbps
*.switch6.eth[11].bitrate = 2200Mbps
*.switch6.eth[12].bitrate = 1500Mbps
*.host7.eth[0].bitrate = 1000Mbps
*.switch7.eth[0].bitrate = 1000Mbps
*.switch7.eth[1].bitrate = 1300Mbps
*.switch7.eth[2].bitrate = 2000Mbps
*.switch7.eth[3].bitrate = 2100Mbps
*.switch7.eth[4].bitrate = 2100Mbps
*.switch7.eth[5].bitrate = 2200Mbps
*.switch7.eth[6].bitrate = 1600Mbps
*.switch7.eth[7].bitrate = 1800Mbps
*.switch7.eth[8].bitrate = 1600Mbps
*.switch7.eth[9].bitrate = 2400Mbps
*.switch7.eth[10].bitrate = 1500Mbps
*.switch7.eth[11].bitrate = 1200Mbps
*.switch7.eth[12].bitrate = 1300Mbps
*.switch7.eth[13].bitrate = 2200Mbps
*.switch7.eth[14].bitrate = 2100Mbps
*.switch7.eth[15].bitrate = 2000Mbps
*.switch7.eth[16].bitrate = 1400Mbps
*.switch7.eth[17].bitrate = 1600Mbps
*.switch7.eth[18].bitrate = 1600Mbps
*.switch7.eth[19].bitrate = 1200Mbps
*.switch7.eth[20].bitrate = 1500Mbps
*.switch7.eth[21].bitrate = 2400Mbps
*.host8.eth[0].bitrate = 1000Mbps
*.switch8.eth[0].bitrate = 1000Mbps
*.switch8.eth[1].bitrate = 2200Mbps
*.switch8.eth[2].bitrate = 2200Mbps
*.switch8.eth[3].bitrate = 2300Mbps
*.switch8.eth[4].bitrate = 1900Mbps
*.switch8.eth[5].bitrate = 1200Mbps
*.switch8.eth[6].bitrate = 1900Mbps
*.switch8.eth[7].bitrate = 1500Mbps
*.switch8.eth[8].bitrate = 1400Mbps
*.switch8.eth[9].bitrate = 1600Mbps
*.switch8.eth[10].bitrate = 2300Mbps
*.switch8.eth[11].bitrate = 1400Mbps
*.switch8.eth[12].bitrate = 1700Mbps
*.switch8.eth[13].bitrate = 1600Mbps
*.switch8.eth[14].bitrate = 1500Mbps
*.switch8.eth[15].bitrate = 2100Mbps
*.switch8.eth[16].bitrate = 2100Mbps
*.switch8.eth[17].bitrate = 1300Mbps
*.switch8.eth[18].bitrate = 1600Mbps
*.switch8.eth[19].bitrate = 2300Mbps
*.switch8.eth[20].bitrate = 2100Mbps
*.switch8.eth[21].bitrate = 2000Mbps
*.switch8.eth[22].bitrate = 1400Mbps
*.host9.eth[0].bitrate = 1000Mbps
*.switch9.eth[0].bitrate = 1000Mbps
*.switch9.eth[1].bitrate = 1200Mbps
*.switch9.eth[2].bitrate = 1600Mbps
*.switch9.eth[3].bitrate = 1500Mbps
*.switch9.eth[4].bitrate = 1200Mbps
*.switch9.eth[5].bitrate = 1500Mbps
*.switch9.eth[6].bitrate = 1300Mbps
*.switch9.eth[7].bitrate = 2400Mbps
*.switch9.eth[8].bitrate = 1800Mbps
*.switch9.eth[9].bitrate = 2000Mbps
*.switch9.eth[10].bitrate = 1400Mbps
*.switch9.eth[11].bitrate = 1400Mbps
*.switch9.eth[12].bitrate = 1600Mbps
*.switch9.eth[13].bitrate = 1600Mbps
*.switch9.eth[14].bitrate = 1200Mbps
*.switch9.eth[15].bitrate = 2200Mbps
*.host10.eth[0].bitrate = 1000Mbps
*.switch10.eth[0].bitrate = 1000Mbps
*.switch10.eth[1].bitrate = 2000Mbps
*.switch10.eth[2].bitrate = 1500Mbps
*.switch10.eth[3].bitrate = 2400Mbps
*.switch10.eth[4].bitrate = 2300Mbps
*.switch10.eth[5].bitrate = 2400Mbps
*.switch10.eth[6].bitrate = 1600Mbps
*.switch10.eth[7].bitrate = 2100Mbps
*.switch10.eth[8].bitrate = 1400Mbps
*.switch10.eth[9].bitrate = 2000Mbps
*.switch10.eth[10].bitrate = 2400Mbps
*.switch10.eth[11].bitrate = 2100Mbps
*.switch10.eth[12].bitrate = 1300Mbps
*.switch10.eth[13].bitrate = 1600Mbps
*.switch10.eth[14].bitrate = 1600Mbps
*.switch10.eth[15].bitrate = 1400Mbps
*.switch10.eth[16].bitrate = 1400Mbps
*.switch10.eth[17].bitrate = 2100Mbps
*.switch10.eth[18].bitrate = 2000Mbps
*.switch10.eth[19].bitrate = 1700Mbps
*.switch10.eth[20].bitrate = 2300Mbps
*.switch10.eth[21].bitrate = 1800Mbps
*.switch10.eth[22].bitrate = 1900Mbps
*.switch10.eth[23].bitrate = 1200Mbps
*.switch10.eth[24].bitrate = 1700Mbps
*.switch10.eth[25].bitrate = 1400Mbps
*.switch10.eth[26].bitrate = 1200Mbps
*.switch10.eth[27].bitrate = 2400Mbps
*.switch10.eth[28].bitrate = 1300Mbps
*.switch10.eth[29].bitrate = 2400Mbps
*.host11.eth[0].bitrate = 1000Mbps
*.switch11.eth[0].bitrate = 1000Mbps
*.switch11.eth[1].bitrate = 1900Mbps
*.switch11.eth[2].bitrate = 2100Mbps
*.switch11.eth[3].bitrate = 1600Mbps
*.switch11.eth[4].bitrate = 1600Mbps
*.switch11.eth[5].bitrate = 1400Mbps
*.switch11.eth[6].bitrate = 1400Mbps
*.switch11.eth[7].bitrate = 2000Mbps
*.switch11.eth[8].bitrate = 1400Mbps
*.switch11.eth[9].bitrate = 2200Mbps
*.switch11.eth[10].bitrate = 1900Mbps
*.switch11.eth[11].bitrate = 1900Mbps
*.switch11.eth[12].bitrate = 2400Mbps
*.switch11.eth[13].bitrate = 1600Mbps
*.switch11.eth[14].bitrate = 2300Mbps
*.switch11.eth[15].bitrate = 1600Mbps
*.switch11.eth[16].bitrate = 1700Mbps
*.switch11.eth[17].bitrate = 1700Mbps
*.switch11.eth[18].bitrate = 1400Mbps
*.switch11.eth[19].bitrate = 2300Mbps
*.switch11.eth[20].bitrate = 1500Mbps
*.switch11.eth[21].bitrate = 1800Mbps
*.switch11.eth[22].bitrate = 2200Mbps
*.switch11.eth[23].bitrate = 2400Mbps
*.switch11.eth[24].bitrate = 1300Mbps
*.switch11.eth[25].bitrate = 1600Mbps
*.switch11.eth[26].bitrate = 2100Mbps
*.host12.eth[0].bitrate = 1000Mbps
*.switch12.eth[0].bitrate = 1000Mbps
*.switch12.eth[1].bitrate = 1400Mbps
*.switch12.eth[2].bitrate = 2400Mbps
*.switch12.eth[3].bitrate = 2000Mbps
*.switch12.eth[4].bitrate = 2400Mbps
*.switch12.eth[5].bitrate = 1700Mbps
*.switch12.eth[6].bitrate = 1800Mbps
*.switch12.eth[7].bitrate = 2100Mbps
*.switch12.eth[8].bitrate = 1700Mbps
*.switch12.eth[9].bitrate = 2100Mbps
*.switch12.eth[10].bitrate = 1700Mbps
*.switch12.eth[11].bitrate = 2400Mbps
*.switch12.eth[12].bitrate = 2200Mbps
*.switch12.eth[13].bitrate = 2300Mbps
*.switch12.eth[14].bitrate = 2200Mbps
*.switch12.eth[15].bitrate = 1600Mbps
*.switch12.eth[16].bitrate = 2200Mbps
*.switch12.eth[17].bitrate = 1900Mbps
*.switch12.eth[18].bitrate = 1900Mbps
*.switch12.eth[19].bitrate = 1900Mbps
*.host13.eth[0].bitrate = 1000Mbps
*.switch13.eth[0].bitrate = 1000Mbps
*.switch13.eth[1].bitrate = 1400Mbps
*.switch13.eth[2].bitrate = 2100Mbps
*.switch13.eth[3].bitrate = 1500Mbps
*.switch13.eth[4].bitrate = 2000Mbps
*.switch13.eth[5].bitrate = 2000Mbps
*.switch13.eth[6].bitrate = 1400Mbps
*.switch13.eth[7].bitrate = 2300Mbps
*.switch13.eth[8].bitrate = 1300Mbps
*.switch13.eth[9].bitrate = 1800Mbps
*.switch13.eth[10].bitrate = 1400Mbps
*.switch13.eth[11].bitrate = 2400Mbps
*.switch13.eth[12].bitrate = 2000Mbps
*.switch13.eth[13].bitrate = 1400Mbps
*.switch13.eth[14].bitrate = 2100Mbps
*.switch13.eth[15].bitrate = 2000Mbps
*.host14.eth[0].bitrate = 1000Mbps
*.switch14.eth[0].bitrate = 1000Mbps
*.switch14.eth[1].bitrate = 1600Mbps
*.switch14.eth[2].bitrate = 1700Mbps
*.switch14.eth[3].bitrate = 2400Mbps
*.switch14.eth[4].bitrate = 1200Mbps
*.switch14.eth[5].bitrate = 1600Mbps
*.switch14.eth[6].bitrate = 1400Mbps
*.switch14.eth[7].bitrate = 2200Mbps
*.switch14.eth[8].bitrate = 2100Mbps
*.switch14.eth[9].bitrate = 1400Mbps
*.switch14.eth[10].bitrate = 1200Mbps
*.switch14.eth[11].bitrate = 1200Mbps
*.switch14.eth[12].bitrate = 1700Mbps
*.switch14.eth[13].bitrate = 2200Mbps
*.switch14.eth[14].bitrate = 1900Mbps
*.switch14.eth[15].bitrate = 1200Mbps
*.switch14.eth[16].bitrate = 1800Mbps
*.host15.eth[0].bitrate = 1000Mbps
*.switch15.eth[0].bitrate = 1000Mbps
*.switch15.eth[1].bitrate = 2300Mbps
*.switch15.eth[2].bitrate = 2200Mbps
*.switch15.eth[3].bitrate = 1300Mbps
*.switch15.eth[4].bitrate = 1700Mbps
*.switch15.eth[5].bitrate = 1700Mbps
*.switch15.eth[6].bitrate = 2000Mbps
*.switch15.eth[7].bitrate = 1400Mbps
*.switch15.eth[8].bitrate = 1200Mbps
*.switch15.eth[9].bitrate = 2100Mbps
*.switch15.eth[10].bitrate = 1800Mbps
*.switch15.eth[11].bitrate = 1200Mbps
*.switch15.eth[12].bitrate = 2200Mbps
*.switch15.eth[13].bitrate = 1200Mbps
*.switch15.eth[14].bitrate = 2100Mbps
*.switch15.eth[15].bitrate = 1600Mbps
*.switch15.eth[16].bitrate = 1200Mbps
*.switch15.eth[17].bitrate = 1300Mbps
*.switch15.eth[18].bitrate = 1900Mbps
*.switch15.eth[19].bitrate = 1400Mbps
*.switch15.eth[20].bitrate = 1900Mbps
*.switch15.eth[21].bitrate = 2300Mbps
*.switch15.eth[22].bitrate = 2300Mbps
*.switch15.eth[23].bitrate = 1600Mbps
*.switch15.eth[24].bitrate = 1600Mbps
*.switch15.eth[25].bitrate = 1300Mbps
*.host16.eth[0].bitrate = 1000Mbps
*.switch16.eth[0].bitrate = 1000Mbps
*.switch16.eth[1].bitrate = 1500Mbps
*.switch16.eth[2].bitrate = 2300Mbps
*.switch16.eth[3].bitrate = 2300Mbps
*.switch16.eth[4].bitrate = 2300Mbps
*.switch16.eth[5].bitrate = 2100Mbps
*.switch16.eth[6].bitrate = 2400Mbps
*.switch16.eth[7].bitrate = 1800Mbps
*.switch16.eth[8].bitrate = 2000Mbps
*.switch16.eth[9].bitrate = 2000Mbps
*.switch16.eth[10].bitrate = 1500Mbps
*.switch16.eth[11].bitrate = 1500Mbps
*.switch16.eth[12].bitrate = 2000Mbps
*.switch16.eth[13].bitrate = 1200Mbps
*.switch16.eth[14].bitrate = 2400Mbps
*.switch16.eth[15].bitrate = 1600Mbps
*.switch16.eth[16].bitrate = 2100Mbps
*.switch16.eth[17].bitrate = 1600Mbps
*.switch16.eth[18].bitrate = 2300Mbps
*.switch16.eth[19].bitrate = 1400Mbps
*.switch16.eth[20].bitrate = 2400Mbps
*.host17.eth[0].bitrate = 1000Mbps
*.switch17.eth[0].bitrate = 1000Mbps
*.switch17.eth[1].bitrate = 1800Mbps
*.switch17.eth[2].bitrate = 1200Mbps
*.switch17.eth[3].bitrate = 2400Mbps
*.switch17.eth[4].bitrate = 2200Mbps
*.switch17.eth[5].bitrate = 1500Mbps
*.switch17.eth[6].bitrate = 1800Mbps
*.switch17.eth[7].bitrate = 1500Mbps
*.switch17.eth[8].bitrate = 2300Mbps
*.switch17.eth[9].bitrate = 1900Mbps
*.switch17.eth[10].bitrate = 1200Mbps
*.host18.eth[0].bitrate = 1000Mbps
*.switch18.eth[0].bitrate = 1000Mbps
*.switch18.eth[1].bitrate = 1700Mbps
*.switch18.eth[2].bitrate = 1500Mbps
*.switch18.eth[3].bitrate = 1300Mbps
*.switch18.eth[4].bitrate = 2100Mbps
*.switch18.eth[5].bitrate = 2100Mbps
*.switch18.eth[6].bitrate = 1900Mbps
*.switch18.eth[7].bitrate = 1600Mbps
*.switch18.eth[8].bitrate = 2000Mbps
*.switch18.eth[9].bitrate = 2300Mbps
*.switch18.eth[10].bitrate = 2300Mbps
*.switch18.eth[11].bitrate = 1800Mbps
*.switch18.eth[12].bitrate = 2400Mbps
*.switch18.eth[13].bitrate = 2300Mbps
*.switch18.eth[14].bitrate = 2300Mbps
*.switch18.eth[15].bitrate = 2200Mbps
*.switch18.eth[16].bitrate = 1300Mbps
*.switch18.eth[17].bitrate = 1300Mbps
*.host19.eth[0].bitrate = 1000Mbps
*.switch19.eth[0].bitrate = 1000Mbps
*.switch19.eth[1].bitrate = 2000Mbps
*.switch19.eth[2].bitrate = 1600Mbps
*.switch19.eth[3].bitrate = 2000Mbps
*.switch19.eth[4].bitrate = 2100Mbps
*.switch19.eth[5].bitrate = 1200Mbps
*.switch19.eth[6].bitrate = 1800Mbps
*.switch19.eth[7].bitrate = 2200Mbps
*.switch19.eth[8].bitrate = 2200Mbps
*.switch19.eth[9].bitrate = 1600Mbps
*.switch19.eth[10].bitrate = 1400Mbps
*.switch19.eth[11].bitrate = 1200Mbps
*.switch19.eth[12].bitrate = 1600Mbps
*.switch19.eth[13].bitrate = 1500Mbps
*.switch19.eth[14].bitrate = 2300Mbps
*.switch19.eth[15].bitrate = 1900Mbps
*.switch19.eth[16].bitrate = 2400Mbps
*.switch19.eth[17].bitrate = 1400Mbps
*.switch19.eth[18].bitrate = 2400Mbps
*.switch19.eth[19].bitrate = 2100Mbps
*.switch19.eth[20].bitrate = 1900Mbps
*.switch19.eth[21].bitrate = 2000Mbps
*.switch19.eth[22].bitrate = 1800Mbps
*.switch19.eth[23].bitrate = 2400Mbps
*.host0.numApps = 2
*.host0.app[0].typename = "UdpSinkApp"
*.host0.app[0].io.localPort = 1000
*.host0.app[1].typename = "UdpSourceApp"
*.host0.app[1].io.destAddress = "host2"
*.host0.app[1].source.packetNameFormat = "%M-%m-%c"
*.host0.app[1].source.displayStringTextFormat = "sent %p pk (%l)"
*.host0.app[1].source.packetLength = 22B
*.host0.app[1].source.productionInterval = 1ms
*.host0.app[1].display-name = "type1_2"
*.host0.app[1].io.destPort = 1000
*.host1.numApps = 7
*.host1.app[0].typename = "UdpBasicApp"
*.host1.app[0].destAddresses = "host18"
*.host1.app[0].source.packetNameFormat = "%M-%m-%c"
*.host1.app[0].source.displayStringTextFormat = "sent %p pk (%l)"
*.host1.app[0].messageLength = 14B
*.host1.app[0].sendInterval = 1ms
*.host1.app[0].startTime = 3ms
*.host1.app[0].stopTime = 10ms
*.host1.app[0].display-name = "type2_0"
*.host1.app[0].destPort = 1000
*.host1.app[1].typename = "UdpBasicApp"
*.host1.app[1].destAddresses = "host18"
*.host1.app[1].source.packetNameFormat = "%M-%m-%c"
*.host1.app[1].source.displayStringTextFormat = "sent %p pk (%l)"
*.host1.app[1].messageLength = 14B
*.host1.app[1].sendInterval = 1ms
*.host1.app[1].startTime = 12ms
*.host1.app[1].stopTime = 16ms
*.host1.app[1].display-name = "type2_0"
*.host1.app[1].destPort = 1000
*.host1.app[2].typename = "UdpBasicApp"
*.host1.app[2].destAddresses = "host18"
*.host1.app[2].source.packetNameFormat = "%M-%m-%c"
*.host1.app[2].source.displayStringTextFormat = "sent %p pk (%l)"
*.host1.app[2].messageLength = 14B
*.host1.app[2].sendInterval = 1ms
*.host1.app[2].startTime = 24ms
*.host1.app[2].stopTime = 27ms
*.host1.app[2].display-name = "type2_0"
*.host1.app[2].destPort = 1000
*.host1.app[3].typename = "UdpBasicApp"
*.host1.app[3].destAddresses = "host18"
*.host1.app[3].source.packetNameFormat = "%M-%m-%c"
*.host1.app[3].source.displayStringTextFormat = "sent %p pk (%l)"
*.host1.app[3].messageLength = 14B
*.host1.app[3].sendInterval = 1ms
*.host1.app[3].startTime = 38ms
*.host1.app[3].stopTime = 45ms
*.host1.app[3].display-name = "type2_0"
*.host1.app[3].destPort = 1000
*.host1.app[4].typename = "UdpBasicApp"
*.host1.app[4].destAddresses = "host18"
*.host1.app[4].source.packetNameFormat = "%M-%m-%c"
*.host1.app[4].source.displayStringTextFormat = "sent %p pk (%l)"
*.host1.app[4].messageLength = 14B
*.host1.app[4].sendInterval = 1ms
*.host1.app[4].startTime = 68ms
*.host1.app[4].stopTime = 75ms
*.host1.app[4].display-name = "type2_0"
*.host1.app[4].destPort = 1000
*.host1.app[5].typename = "UdpBasicApp"
*.host1.app[5].destAddresses = "host18"
*.host1.app[5].source.packetNameFormat = "%M-%m-%c"
*.host1.app[5].source.displayStringTextFormat = "sent %p pk (%l)"
*.host1.app[5].messageLength = 14B
*.host1.app[5].sendInterval = 1ms
*.host1.app[5].startTime = 78ms
*.host1.app[5].stopTime = 100ms
*.host1.app[5].display-name = "type2_0"
*.host1.app[5].destPort = 1000
*.host1.app[6].typename = "UdpSinkApp"
*.host1.app[6].io.localPort = 1000
*.host2.numApps = 26
*.host2.app[0].typename = "UdpSourceApp"
*.host2.app[0].io.destAddress = "host0"
*.host2.app[0].source.packetNameFormat = "%M-%m-%c"
*.host2.app[0].source.displayStringTextFormat = "sent %p pk (%l)"
*.host2.app[0].source.packetLength = 12B
*.host2.app[0].source.productionInterval = 1ms
*.host2.app[0].display-name = "type1_0"
*.host2.app[0].io.destPort = 1000
*.host2.app[1].typename = "UdpSinkApp"
*.host2.app[1].io.localPort = 1000
*.host2.app[2].typename = "UdpBasicApp"
*.host2.app[2].destAddresses = "host5"
*.host2.app[2].source.packetNameFormat = "%M-%m-%c"
*.host2.app[2].source.displayStringTextFormat = "sent %p pk (%l)"
*.host2.app[2].messageLength = 18B
*.host2.app[2].sendInterval = 1ms
*.host2.app[2].startTime = 3ms
*.host2.app[2].stopTime = 31ms
*.host2.app[2].display-name = "type2_1"
*.host2.app[2].destPort = 1000
*.host2.app[3].typename = "UdpBasicApp"
*.host2.app[3].destAddresses = "host5"
*.host2.app[3].source.packetNameFormat = "%M-%m-%c"
*.host2.app[3].source.displayStringTextFormat = "sent %p pk (%l)"
*.host2.app[3].messageLength = 18B
*.host2.app[3].sendInterval = 1ms
*.host2.app[3].startTime = 42ms
*.host2.app[3].stopTime = 43ms
*.host2.app[3].display-name = "type2_1"
*.host2.app[3].destPort = 1000
*.host2.app[4].typename = "UdpBasicApp"
*.host2.app[4].destAddresses = "host5"
*.host2.app[4].source.packetNameFormat = "%M-%m-%c"
*.host2.app[4].source.displayStringTextFormat = "sent %p pk (%l)"
*.host2.app[4].messageLength = 18B
*.host2.app[4].sendInterval = 1ms
*.host2.app[4].startTime = 51ms
*.host2.app[4].stopTime = 64ms
*.host2.app[4].display-name = "type2_1"
*.host2.app[4].destPort = 1000
*.host2.app[5].typename = "UdpBasicApp"
*.host2.app[5].destAddresses = "host5"
*.host2.app[5].source.packetNameFormat = "%M-%m-%c"
*.host2.app[5].source.displayStringTextFormat = "sent %p pk (%l)"
*.host2.app[5].messageLength = 18B
*.host2.app[5].sendInterval = 1ms
*.host2.app[5].startTime = 68ms
*.host2.app[5].stopTime = 72ms
*.host2.app[5].display-name = "type2_1"
*.host2.app[5].destPort = 1000
*.host2.app[6].typename = "UdpBasicApp"
*.host2.app[6].destAddresses = "host5"
*.host2.app[6].source.packetNameFormat = "%M-%m-%c"
*.host2.app[6].source.displayStringTextFormat = "sent %p pk (%l)"
*.host2.app[6].messageLength = 18B
*.host2.app[6].sendInterval = 1ms
*.host2.app[6].startTime = 79ms
*.host2.app[6].stopTime = 80ms
*.host2.app[6].display-name = "type2_1"
*.host2.app[6].destPort = 1000
*.host2.app[7].typename = "UdpBasicApp"
*.host2.app[7].destAddresses = "host5"
*.host2.app[7].source.packetNameFormat = "%M-%m-%c"
*.host2.app[7].source.displayStringTextFormat = "sent %p pk (%l)"
*.host2.app[7].messageLength = 18B
*.host2.app[7].sendInterval = 1ms
*.host2.app[7].startTime = 81ms
*.host2.app[7].stopTime = 88ms
*.host2.app[7].display-name = "type2_1"
*.host2.app[7].destPort = 1000
*.host2.app[8].typename = "UdpBasicApp"
*.host2.app[8].destAddresses = "host5"
*.host2.app[8].source.packetNameFormat = "%M-%m-%c"
*.host2.app[8].source.displayStringTextFormat = "sent %p pk (%l)"
*.host2.app[8].messageLength = 18B
*.host2.app[8].sendInterval = 1ms
*.host2.app[8].startTime = 92ms
*.host2.app[8].stopTime = 100ms
*.host2.app[8].display-name = "type2_1"
*.host2.app[8].destPort = 1000
*.host2.app[9].typename = "UdpBasicApp"
*.host2.app[9].destAddresses = "host1"
*.host2.app[9].source.packetNameFormat = "%M-%m-%c"
*.host2.app[9].source.displayStringTextFormat = "sent %p pk (%l)"
*.host2.app[9].messageLength = 13B
*.host2.app[9].sendInterval = 1ms
*.host2.app[9].startTime = 14ms
*.host2.app[9].stopTime = 21ms
*.host2.app[9].display-name = "type2_2"
*.host2.app[9].destPort = 1000
*.host2.app[10].typename = "UdpBasicApp"
*.host2.app[10].destAddresses = "host1"
*.host2.app[10].source.packetNameFormat = "%M-%m-%c"
*.host2.app[10].source.displayStringTextFormat = "sent %p pk (%l)"
*.host2.app[10].messageLength = 13B
*.host2.app[10].sendInterval = 1ms
*.host2.app[10].startTime = 25ms
*.host2.app[10].stopTime = 32ms
*.host2.app[10].display-name = "type2_2"
*.host2.app[10].destPort = 1000
*.host2.app[11].typename = "UdpBasicApp"
*.host2.app[11].destAddresses = "host1"
*.host2.app[11].source.packetNameFormat = "%M-%m-%c"
*.host2.app[11].source.displayStringTextFormat = "sent %p pk (%l)"
*.host2.app[11].messageLength = 13B
*.host2.app[11].sendInterval = 1ms
*.host2.app[11].startTime = 38ms
*.host2.app[11].stopTime = 43ms
*.host2.app[11].display-name = "type2_2"
*.host2.app[11].destPort = 1000
*.host2.app[12].typename = "UdpBasicApp"
*.host2.app[12].destAddresses = "host1"
*.host2.app[12].source.packetNameFormat = "%M-%m-%c"
*.host2.app[12].source.displayStringTextFormat = "sent %p pk (%l)"
*.host2.app[12].messageLength = 13B
*.host2.app[12].sendInterval = 1ms
*.host2.app[12].startTime = 46ms
*.host2.app[12].stopTime = 49ms
*.host2.app[12].display-name = "type2_2"
*.host2.app[12].destPort = 1000
*.host2.app[13].typename = "UdpBasicApp"
*.host2.app[13].destAddresses = "host1"
*.host2.app[13].source.packetNameFormat = "%M-%m-%c"
*.host2.app[13].source.displayStringTextFormat = "sent %p pk (%l)"
*.host2.app[13].messageLength = 13B
*.host2.app[13].sendInterval = 1ms
*.host2.app[13].startTime = 50ms
*.host2.app[13].stopTime = 100ms
*.host2.app[13].display-name = "type2_2"
*.host2.app[13].destPort = 1000
*.host2.app[14].typename = "UdpBasicApp"
*.host2.app[14].destAddresses = "host4"
*.host2.app[14].source.packetNameFormat = "%M-%m-%c"
*.host2.app[14].source.displayStringTextFormat = "sent %p pk (%l)"
*.host2.app[14].messageLength = 13B
*.host2.app[14].sendInterval = 1ms
*.host2.app[14].startTime = 2ms
*.host2.app[14].stopTime = 6ms
*.host2.app[14].display-name = "type2_4"
*.host2.app[14].destPort = 1000
*.host2.app[15].typename = "UdpBasicApp"
*.host2.app[15].destAddresses = "host4"
*.host2.app[15].source.packetNameFormat = "%M-%m-%c"
*.host2.app[15].source.displayStringTextFormat = "sent %p pk (%l)"
*.host2.app[15].messageLength = 13B
*.host2.app[15].sendInterval = 1ms
*.host2.app[15].startTime = 14ms
*.host2.app[15].stopTime = 18ms
*.host2.app[15].display-name = "type2_4"
*.host2.app[15].destPort = 1000
*.host2.app[16].typename = "UdpBasicApp"
*.host2.app[16].destAddresses = "host4"
*.host2.app[16].source.packetNameFormat = "%M-%m-%c"
*.host2.app[16].source.displayStringTextFormat = "sent %p pk (%l)"
*.host2.app[16].messageLength = 13B
*.host2.app[16].sendInterval = 1ms
*.host2.app[16].startTime = 47ms
*.host2.app[16].stopTime = 54ms
*.host2.app[16].display-name = "type2_4"
*.host2.app[16].destPort = 1000
*.host2.app[17].typename = "UdpBasicApp"
*.host2.app[17].destAddresses = "host4"
*.host2.app[17].source.packetNameFormat = "%M-%m-%c"
*.host2.app[17].source.displayStringTextFormat = "sent %p pk (%l)"
*.host2.app[17].messageLength = 13B
*.host2.app[17].sendInterval = 1ms
*.host2.app[17].startTime = 58ms
*.host2.app[17].stopTime = 63ms
*.host2.app[17].display-name = "type2_4"
*.host2.app[17].destPort = 1000
*.host2.app[18].typename = "UdpBasicApp"
*.host2.app[18].destAddresses = "host4"
*.host2.app[18].source.packetNameFormat = "%M-%m-%c"
*.host2.app[18].source.displayStringTextFormat = "sent %p pk (%l)"
*.host2.app[18].messageLength = 13B
*.host2.app[18].sendInterval = 1ms
*.host2.app[18].startTime = 66ms
*.host2.app[18].stopTime = 67ms
*.host2.app[18].display-name = "type2_4"
*.host2.app[18].destPort = 1000
*.host2.app[19].typename = "UdpBasicApp"
*.host2.app[19].destAddresses = "host4"
*.host2.app[19].source.packetNameFormat = "%M-%m-%c"
*.host2.app[19].source.displayStringTextFormat = "sent %p pk (%l)"
*.host2.app[19].messageLength = 13B
*.host2.app[19].sendInterval = 1ms
*.host2.app[19].startTime = 72ms
*.host2.app[19].stopTime = 76ms
*.host2.app[19].display-name = "type2_4"
*.host2.app[19].destPort = 1000
*.host2.app[20].typename = "UdpSinkApp"
*.host2.app[20].io.localPort = 1001
*.host2.app[21].typename = "UdpBasicApp"
*.host2.app[21].destAddresses = "host5"
*.host2.app[21].source.packetNameFormat = "%M-%m-%c"
*.host2.app[21].source.displayStringTextFormat = "sent %p pk (%l)"
*.host2.app[21].messageLength = 18B
*.host2.app[21].sendInterval = 1ms
*.host2.app[21].startTime = 7ms
*.host2.app[21].stopTime = 10ms
*.host2.app[21].display-name = "type2_15"
*.host2.app[21].destPort = 1001
*.host2.app[22].typename = "UdpBasicApp"
*.host2.app[22].destAddresses = "host5"
*.host2.app[22].source.packetNameFormat = "%M-%m-%c"
*.host2.app[22].source.displayStringTextFormat = "sent %p pk (%l)"
*.host2.app[22].messageLength = 18B
*.host2.app[22].sendInterval = 1ms
*.host2.app[22].startTime = 27ms
*.host2.app[22].stopTime = 35ms
*.host2.app[22].display-name = "type2_15"
*.host2.app[22].destPort = 1001
*.host2.app[23].typename = "UdpBasicApp"
*.host2.app[23].destAddresses = "host5"
*.host2.app[23].source.packetNameFormat = "%M-%m-%c"
*.host2.app[23].source.displayStringTextFormat = "sent %p pk (%l)"
*.host2.app[23].messageLength = 18B
*.host2.app[23].sendInterval = 1ms
*.host2.app[23].startTime = 45ms
*.host2.app[23].stopTime = 62ms
*.host2.app[23].display-name = "type2_15"
*.host2.app[23].destPort = 1001
*.host2.app[24].typename = "UdpBasicApp"
*.host2.app[24].destAddresses = "host5"
*.host2.app[24].source.packetNameFormat = "%M-%m-%c"
*.host2.app[24].source.displayStringTextFormat = "sent %p pk (%l)"
*.host2.app[24].messageLength = 18B
*.host2.app[24].sendInterval = 1ms
*.host2.app[24].startTime = 63ms
*.host2.app[24].stopTime = 90ms
*.host2.app[24].display-name = "type2_15"
*.host2.app[24].destPort = 1001
*.host2.app[25].typename = "UdpBasicApp"
*.host2.app[25].destAddresses = "host5"
*.host2.app[25].source.packetNameFormat = "%M-%m-%c"
*.host2.app[25].source.displayStringTextFormat = "sent %p pk (%l)"
*.host2.app[25].messageLength = 18B
*.host2.app[25].sendInterval = 1ms
*.host2.app[25].startTime = 97ms
*.host2.app[25].stopTime = 100ms
*.host2.app[25].display-name = "type2_15"
*.host2.app[25].destPort = 1001
*.host3.numApps = 17
*.host3.app[0].typename = "UdpBasicApp"
*.host3.app[0].destAddresses = "host10"
*.host3.app[0].source.packetNameFormat = "%M-%m-%c"
*.host3.app[0].source.displayStringTextFormat = "sent %p pk (%l)"
*.host3.app[0].messageLength = 17B
*.host3.app[0].sendInterval = 1ms
*.host3.app[0].startTime = 2ms
*.host3.app[0].stopTime = 7ms
*.host3.app[0].display-name = "type2_10"
*.host3.app[0].destPort = 1000
*.host3.app[1].typename = "UdpBasicApp"
*.host3.app[1].destAddresses = "host10"
*.host3.app[1].source.packetNameFormat = "%M-%m-%c"
*.host3.app[1].source.displayStringTextFormat = "sent %p pk (%l)"
*.host3.app[1].messageLength = 17B
*.host3.app[1].sendInterval = 1ms
*.host3.app[1].startTime = 9ms
*.host3.app[1].stopTime = 21ms
*.host3.app[1].display-name = "type2_10"
*.host3.app[1].destPort = 1000
*.host3.app[2].typename = "UdpBasicApp"
*.host3.app[2].destAddresses = "host10"
*.host3.app[2].source.packetNameFormat = "%M-%m-%c"
*.host3.app[2].source.displayStringTextFormat = "sent %p pk (%l)"
*.host3.app[2].messageLength = 17B
*.host3.app[2].sendInterval = 1ms
*.host3.app[2].startTime = 33ms
*.host3.app[2].stopTime = 36ms
*.host3.app[2].display-name = "type2_10"
*.host3.app[2].destPort = 1000
*.host3.app[3].typename = "UdpBasicApp"
*.host3.app[3].destAddresses = "host10"
*.host3.app[3].source.packetNameFormat = "%M-%m-%c"
*.host3.app[3].source.displayStringTextFormat = "sent %p pk (%l)"
*.host3.app[3].messageLength = 17B
*.host3.app[3].sendInterval = 1ms
*.host3.app[3].startTime = 38ms
*.host3.app[3].stopTime = 41ms
*.host3.app[3].display-name = "type2_10"
*.host3.app[3].destPort = 1000
*.host3.app[4].typename = "UdpBasicApp"
*.host3.app[4].destAddresses = "host10"
*.host3.app[4].source.packetNameFormat = "%M-%m-%c"