[General]
network = TSN_multipath
sim-time-limit = 10ms
*.macForwardingTableConfigurator.typename = ""
*.*.hasStreamRedundancy = true
*.*.bridging.streamRelay.typename = "StreamRelayLayer"
*.*.bridging.streamCoder.typename = "StreamCoderLayer"
*.streamRedundancyConfigurator.typename = "StreamRedundancyConfigurator"
*.host0.eth[0].bitrate = 1000Mbps
*.switch0.eth[0].bitrate = 1000Mbps
*.switch0.eth[1].bitrate = 1300Mbps
*.switch0.eth[2].bitrate = 1300Mbps
*.switch0.eth[3].bitrate = 2400Mbps
*.switch0.eth[4].bitrate = 1800Mbps
*.switch0.eth[5].bitrate = 2300Mbps
*.host1.eth[0].bitrate = 1000Mbps
*.switch1.eth[0].bitrate = 1000Mbps
*.switch1.eth[1].bitrate = 1300Mbps
*.switch1.eth[2].bitrate = 1900Mbps
*.switch1.eth[3].bitrate = 1400Mbps
*.switch1.eth[4].bitrate = 1800Mbps
*.switch1.eth[5].bitrate = 1400Mbps
*.host2.eth[0].bitrate = 1000Mbps
*.switch2.eth[0].bitrate = 1000Mbps
*.switch2.eth[1].bitrate = 1300Mbps
*.switch2.eth[2].bitrate = 1300Mbps
*.switch2.eth[3].bitrate = 1800Mbps
*.switch2.eth[4].bitrate = 1300Mbps
*.host3.eth[0].bitrate = 1000Mbps
*.switch3.eth[0].bitrate = 1000Mbps
*.switch3.eth[1].bitrate = 1300Mbps
*.switch3.eth[2].bitrate = 1900Mbps
*.switch3.eth[3].bitrate = 1800Mbps
*.switch3.eth[4].bitrate = 1400Mbps
*.switch3.eth[5].bitrate = 2300Mbps
*.switch3.eth[6].bitrate = 2200Mbps
*.host4.eth[0].bitrate = 1000Mbps
*.switch4.eth[0].bitrate = 1000Mbps
*.switch4.eth[1].bitrate = 2400Mbps
*.switch4.eth[2].bitrate = 1400Mbps
*.switch4.eth[3].bitrate = 2300Mbps
*.switch4.eth[4].bitrate = 2300Mbps
*.switch4.eth[5].bitrate = 1300Mbps
*.switch4.eth[6].bitrate = 2200Mbps
*.host0.numApps = 10
*.host0.app[0].typename = "UdpSinkApp"
*.host0.app[0].io.localPort = 1000
*.host0.app[1].typename = "UdpBasicApp"
*.host0.app[1].destAddresses = "host1"
*.host0.app[1].source.packetNameFormat = "%M-%m-%c"
*.host0.app[1].source.displayStringTextFormat = "sent %p pk (%l)"
*.host0.app[1].messageLength = 17B
*.host0.app[1].sendInterval = 1ms
*.host0.app[1].startTime = 1700us
*.host0.app[1].stopTime = 1900us
*.host0.app[1].display-name = "type2_1"
*.host0.app[1].destPort = 1000
*.host0.app[2].typename = "UdpBasicApp"
*.host0.app[2].destAddresses = "host1"
*.host0.app[2].source.packetNameFormat = "%M-%m-%c"
*.host0.app[2].source.displayStringTextFormat = "sent %p pk (%l)"
*.host0.app[2].messageLength = 17B
*.host0.app[2].sendInterval = 1ms
*.host0.app[2].startTime = 2200us
*.host0.app[2].stopTime = 3000us
*.host0.app[2].display-name = "type2_1"
*.host0.app[2].destPort = 1000
*.host0.app[3].typename = "UdpBasicApp"
*.host0.app[3].destAddresses = "host1"
*.host0.app[3].source.packetNameFormat = "%M-%m-%c"
*.host0.app[3].source.displayStringTextFormat = "sent %p pk (%l)"
*.host0.app[3].messageLength = 17B
*.host0.app[3].sendInterval = 1ms
*.host0.app[3].startTime = 3100us
*.host0.app[3].stopTime = 3600us
*.host0.app[3].display-name = "type2_1"
*.host0.app[3].destPort = 1000
*.host0.app[4].typename = "UdpBasicApp"
*.host0.app[4].destAddresses = "host1"
*.host0.app[4].source.packetNameFormat = "%M-%m-%c"
*.host0.app[4].source.displayStringTextFormat = "sent %p pk (%l)"
*.host0.app[4].messageLength = 17B
*.host0.app[4].sendInterval = 1ms
*.host0.app[4].startTime = 3800us
*.host0.app[4].stopTime = 4200us
*.host0.app[4].display-name = "type2_1"
*.host0.app[4].destPort = 1000
*.host0.app[5].typename = "UdpBasicApp"
*.host0.app[5].destAddresses = "host1"
*.host0.app[5].source.packetNameFormat = "%M-%m-%c"
*.host0.app[5].source.displayStringTextFormat = "sent %p pk (%l)"
*.host0.app[5].messageLength = 17B
*.host0.app[5].sendInterval = 1ms
*.host0.app[5].startTime = 4300us
*.host0.app[5].stopTime = 4800us
*.host0.app[5].display-name = "type2_1"
*.host0.app[5].destPort = 1000
*.host0.app[6].typename = "UdpBasicApp"
*.host0.app[6].destAddresses = "host1"
*.host0.app[6].source.packetNameFormat = "%M-%m-%c"
*.host0.app[6].source.displayStringTextFormat = "sent %p pk (%l)"
*.host0.app[6].messageLength = 17B
*.host0.app[6].sendInterval = 1ms
*.host0.app[6].startTime = 5000us
*.host0.app[6].stopTime = 6000us
*.host0.app[6].display-name = "type2_1"
*.host0.app[6].destPort = 1000
*.host0.app[7].typename = "UdpBasicApp"
*.host0.app[7].destAddresses = "host1"
*.host0.app[7].source.packetNameFormat = "%M-%m-%c"
*.host0.app[7].source.displayStringTextFormat = "sent %p pk (%l)"
*.host0.app[7].messageLength = 17B
*.host0.app[7].sendInterval = 1ms
*.host0.app[7].startTime = 6700us
*.host0.app[7].stopTime = 8300us
*.host0.app[7].display-name = "type2_1"
*.host0.app[7].destPort = 1000
*.host0.app[8].typename = "UdpBasicApp"
*.host0.app[8].destAddresses = "host1"
*.host0.app[8].source.packetNameFormat = "%M-%m-%c"
*.host0.app[8].source.displayStringTextFormat = "sent %p pk (%l)"
*.host0.app[8].messageLength = 17B
*.host0.app[8].sendInterval = 1ms
*.host0.app[8].startTime = 8400us
*.host0.app[8].stopTime = 10000us
*.host0.app[8].display-name = "type2_1"
*.host0.app[8].destPort = 1000
*.host0.app[9].typename = "UdpSinkApp"
*.host0.app[9].io.localPort = 1001
*.host1.numApps = 1
*.host1.app[0].typename = "UdpSinkApp"
*.host1.app[0].io.localPort = 1000
*.host2.numApps = 6
*.host2.app[0].typename = "UdpSinkApp"
*.host2.app[0].io.localPort = 1000
*.host2.app[1].typename = "UdpBasicApp"
*.host2.app[1].destAddresses = "host0"
*.host2.app[1].source.packetNameFormat = "%M-%m-%c"
*.host2.app[1].source.displayStringTextFormat = "sent %p pk (%l)"
*.host2.app[1].messageLength = 19B
*.host2.app[1].sendInterval = 1ms
*.host2.app[1].startTime = 400us
*.host2.app[1].stopTime = 600us
*.host2.app[1].display-name = "type2_3"
*.host2.app[1].destPort = 1001
*.host2.app[2].typename = "UdpBasicApp"
*.host2.app[2].destAddresses = "host0"
*.host2.app[2].source.packetNameFormat = "%M-%m-%c"
*.host2.app[2].source.displayStringTextFormat = "sent %p pk (%l)"
*.host2.app[2].messageLength = 19B
*.host2.app[2].sendInterval = 1ms
*.host2.app[2].startTime = 1700us
*.host2.app[2].stopTime = 3900us
*.host2.app[2].display-name = "type2_3"
*.host2.app[2].destPort = 1001
*.host2.app[3].typename = "UdpBasicApp"
*.host2.app[3].destAddresses = "host0"
*.host2.app[3].source.packetNameFormat = "%M-%m-%c"
*.host2.app[3].source.displayStringTextFormat = "sent %p pk (%l)"
*.host2.app[3].messageLength = 19B
*.host2.app[3].sendInterval = 1ms
*.host2.app[3].startTime = 4500us
*.host2.app[3].stopTime = 4800us
*.host2.app[3].display-name = "type2_3"
*.host2.app[3].destPort = 1001
*.host2.app[4].typename = "UdpBasicApp"
*.host2.app[4].destAddresses = "host0"
*.host2.app[4].source.packetNameFormat = "%M-%m-%c"
*.host2.app[4].source.displayStringTextFormat = "sent %p pk (%l)"
*.host2.app[4].messageLength = 19B
*.host2.app[4].sendInterval = 1ms
*.host2.app[4].startTime = 5300us
*.host2.app[4].stopTime = 6900us
*.host2.app[4].display-name = "type2_3"
*.host2.app[4].destPort = 1001
*.host2.app[5].typename = "UdpBasicApp"
*.host2.app[5].destAddresses = "host0"
*.host2.app[5].source.packetNameFormat = "%M-%m-%c"
*.host2.app[5].source.displayStringTextFormat = "sent %p pk (%l)"
*.host2.app[5].messageLength = 19B
*.host2.app[5].sendInterval = 1ms
*.host2.app[5].startTime = 8700us
*.host2.app[5].stopTime = 8900us
*.host2.app[5].display-name = "type2_3"
*.host2.app[5].destPort = 1001
*.host3.numApps = 15
*.host3.app[0].typename = "UdpSourceApp"
*.host3.app[0].io.destAddress = "host4"
*.host3.app[0].source.packetNameFormat = "%M-%m-%c"
*.host3.app[0].source.displayStringTextFormat = "sent %p pk (%l)"
*.host3.app[0].source.packetLength = 18B
*.host3.app[0].source.productionInterval = 1ms
*.host3.app[0].display-name = "type1_0"
*.host3.app[0].io.destPort = 1000
*.host3.app[1].typename = "UdpBasicApp"
*.host3.app[1].destAddresses = "host0"
*.host3.app[1].source.packetNameFormat = "%M-%m-%c"
*.host3.app[1].source.displayStringTextFormat = "sent %p pk (%l)"
*.host3.app[1].messageLength = 22B
*.host3.app[1].sendInterval = 1ms
*.host3.app[1].startTime = 0us
*.host3.app[1].stopTime = 800us
*.host3.app[1].display-name = "type2_0"
*.host3.app[1].destPort = 1000
*.host3.app[2].typename = "UdpBasicApp"
*.host3.app[2].destAddresses = "host0"
*.host3.app[2].source.packetNameFormat = "%M-%m-%c"
*.host3.app[2].source.displayStringTextFormat = "sent %p pk (%l)"
*.host3.app[2].messageLength = 22B
*.host3.app[2].sendInterval = 1ms
*.host3.app[2].startTime = 1800us
*.host3.app[2].stopTime = 2800us
*.host3.app[2].display-name = "type2_0"
*.host3.app[2].destPort = 1000
*.host3.app[3].typename = "UdpBasicApp"
*.host3.app[3].destAddresses = "host0"
*.host3.app[3].source.packetNameFormat = "%M-%m-%c"
*.host3.app[3].source.displayStringTextFormat = "sent %p pk (%l)"
*.host3.app[3].messageLength = 22B
*.host3.app[3].sendInterval = 1ms
*.host3.app[3].startTime = 3500us
*.host3.app[3].stopTime = 4700us
*.host3.app[3].display-name = "type2_0"
*.host3.app[3].destPort = 1000
*.host3.app[4].typename = "UdpBasicApp"
*.host3.app[4].destAddresses = "host0"
*.host3.app[4].source.packetNameFormat = "%M-%m-%c"
*.host3.app[4].source.displayStringTextFormat = "sent %p pk (%l)"
*.host3.app[4].messageLength = 22B
*.host3.app[4].sendInterval = 1ms
*.host3.app[4].startTime = 4900us
*.host3.app[4].stopTime = 5100us
*.host3.app[4].display-name = "type2_0"
*.host3.app[4].destPort = 1000
*.host3.app[5].typename = "UdpBasicApp"
*.host3.app[5].destAddresses = "host0"
*.host3.app[5].source.packetNameFormat = "%M-%m-%c"
*.host3.app[5].source.displayStringTextFormat = "sent %p pk (%l)"
*.host3.app[5].messageLength = 22B
*.host3.app[5].sendInterval = 1ms
*.host3.app[5].startTime = 5600us
*.host3.app[5].stopTime = 6200us
*.host3.app[5].display-name = "type2_0"
*.host3.app[5].destPort = 1000
*.host3.app[6].typename = "UdpBasicApp"
*.host3.app[6].destAddresses = "host0"
*.host3.app[6].source.packetNameFormat = "%M-%m-%c"
*.host3.app[6].source.displayStringTextFormat = "sent %p pk (%l)"
*.host3.app[6].messageLength = 22B
*.host3.app[6].sendInterval = 1ms
*.host3.app[6].startTime = 6700us
*.host3.app[6].stopTime = 6800us
*.host3.app[6].display-name = "type2_0"
*.host3.app[6].destPort = 1000
*.host3.app[7].typename = "UdpBasicApp"
*.host3.app[7].destAddresses = "host0"
*.host3.app[7].source.packetNameFormat = "%M-%m-%c"
*.host3.app[7].source.displayStringTextFormat = "sent %p pk (%l)"
*.host3.app[7].messageLength = 22B
*.host3.app[7].sendInterval = 1ms
*.host3.app[7].startTime = 7900us
*.host3.app[7].stopTime = 8900us
*.host3.app[7].display-name = "type2_0"
*.host3.app[7].destPort = 1000
*.host3.app[8].typename = "UdpBasicApp"
*.host3.app[8].destAddresses = "host0"
*.host3.app[8].source.packetNameFormat = "%M-%m-%c"
*.host3.app[8].source.displayStringTextFormat = "sent %p pk (%l)"
*.host3.app[8].messageLength = 22B
*.host3.app[8].sendInterval = 1ms
*.host3.app[8].startTime = 9700us
*.host3.app[8].stopTime = 9900us
*.host3.app[8].display-name = "type2_0"
*.host3.app[8].destPort = 1000
*.host3.app[9].typename = "UdpBasicApp"
*.host3.app[9].destAddresses = "host2"
*.host3.app[9].source.packetNameFormat = "%M-%m-%c"
*.host3.app[9].source.displayStringTextFormat = "sent %p pk (%l)"
*.host3.app[9].messageLength = 14B
*.host3.app[9].sendInterval = 1ms
*.host3.app[9].startTime = 600us
*.host3.app[9].stopTime = 1000us
*.host3.app[9].display-name = "type2_2"
*.host3.app[9].destPort = 1000
*.host3.app[10].typename = "UdpBasicApp"
*.host3.app[10].destAddresses = "host2"
*.host3.app[10].source.packetNameFormat = "%M-%m-%c"
*.host3.app[10].source.displayStringTextFormat = "sent %p pk (%l)"
*.host3.app[10].messageLength = 14B
*.host3.app[10].sendInterval = 1ms
*.host3.app[10].startTime = 2600us
*.host3.app[10].stopTime = 5000us
*.host3.app[10].display-name = "type2_2"
*.host3.app[10].destPort = 1000
*.host3.app[11].typename = "UdpBasicApp"
*.host3.app[11].destAddresses = "host2"
*.host3.app[11].source.packetNameFormat = "%M-%m-%c"
*.host3.app[11].source.displayStringTextFormat = "sent %p pk (%l)"
*.host3.app[11].messageLength = 14B
*.host3.app[11].sendInterval = 1ms
*.host3.app[11].startTime = 6300us
*.host3.app[11].stopTime = 7400us
*.host3.app[11].display-name = "type2_2"
*.host3.app[11].destPort = 1000
*.host3.app[12].typename = "UdpBasicApp"
*.host3.app[12].destAddresses = "host2"
*.host3.app[12].source.packetNameFormat = "%M-%m-%c"
*.host3.app[12].source.displayStringTextFormat = "sent %p pk (%l)"
*.host3.app[12].messageLength = 14B
*.host3.app[12].sendInterval = 1ms
*.host3.app[12].startTime = 7600us
*.host3.app[12].stopTime = 8200us
*.host3.app[12].display-name = "type2_2"
*.host3.app[12].destPort = 1000
*.host3.app[13].typename = "UdpBasicApp"
*.host3.app[13].destAddresses = "host2"
*.host3.app[13].source.packetNameFormat = "%M-%m-%c"
*.host3.app[13].source.displayStringTextFormat = "sent %p pk (%l)"
*.host3.app[13].messageLength = 14B
*.host3.app[13].sendInterval = 1ms
*.host3.app[13].startTime = 8400us
*.host3.app[13].stopTime = 9000us
*.host3.app[13].display-name = "type2_2"
*.host3.app[13].destPort = 1000
*.host3.app[14].typename = "UdpBasicApp"
*.host3.app[14].destAddresses = "host2"
*.host3.app[14].source.packetNameFormat = "%M-%m-%c"
*.host3.app[14].source.displayStringTextFormat = "sent %p pk (%l)"
*.host3.app[14].messageLength = 14B
*.host3.app[14].sendInterval = 1ms
*.host3.app[14].startTime = 9400us
*.host3.app[14].stopTime = 10000us
*.host3.app[14].display-name = "type2_2"
*.host3.app[14].destPort = 1000
*.host4.numApps = 1
*.host4.app[0].typename = "UdpSinkApp"
*.host4.app[0].io.localPort = 1000
*.streamRedundancyConfigurator.configuration = [
	{
		name: "S1-0",
		packetFilter: "*-type1_0-*",
		source: "host3",
		destination: "host4",
		trees: [[["host3", "switch3", "switch4", "host4"]]]
	},
	{
		name: "S2-0",
		packetFilter: "*-type2_0-*",
		source: "host3",
		destination: "host0",
		trees: [[["host3", "switch3", "switch0", "host0"]]]
	},
	{
		name: "S2-1",
		packetFilter: "*-type2_1-*",
		source: "host0",
		destination: "host1",
		trees: [[["host0", "switch0", "switch2", "switch1", "host1"]]]
	},
	{
		name: "S2-2",
		packetFilter: "*-type2_2-*",
		source: "host3",
		destination: "host2",
		trees: [[["host3", "switch3", "switch0", "switch2", "host2"]]]
	},
	{
		name: "S2-3",
		packetFilter: "*-type2_3-*",
		source: "host2",
		destination: "host0",
		trees: [[["host2", "switch2", "switch1", "switch3", "switch0", "host0"]]]
	}]
	

