[General]
network = TSN_multipath
sim-time-limit = 100ms
*.macForwardingTableConfigurator.typename = ""
*.*.hasStreamRedundancy = true
*.*.bridging.streamRelay.typename = "StreamRelayLayer"
*.*.bridging.streamCoder.typename = "StreamCoderLayer"
*.streamRedundancyConfigurator.typename = "StreamRedundancyConfigurator"
*.host0.eth[0].bitrate = 1000Mbps
*.switch0.eth[0].bitrate = 1000Mbps
*.switch0.eth[1].bitrate = 2100Mbps
*.switch0.eth[2].bitrate = 1600Mbps
*.switch0.eth[3].bitrate = 2300Mbps
*.switch0.eth[4].bitrate = 2100Mbps
*.host1.eth[0].bitrate = 1000Mbps
*.switch1.eth[0].bitrate = 1000Mbps
*.switch1.eth[1].bitrate = 2100Mbps
*.switch1.eth[2].bitrate = 1800Mbps
*.switch1.eth[3].bitrate = 1400Mbps
*.switch1.eth[4].bitrate = 2400Mbps
*.switch1.eth[5].bitrate = 2400Mbps
*.host2.eth[0].bitrate = 1000Mbps
*.switch2.eth[0].bitrate = 1000Mbps
*.switch2.eth[1].bitrate = 1600Mbps
*.switch2.eth[2].bitrate = 2100Mbps
*.switch2.eth[3].bitrate = 1400Mbps
*.switch2.eth[4].bitrate = 2300Mbps
*.switch2.eth[5].bitrate = 1400Mbps
*.host3.eth[0].bitrate = 1000Mbps
*.switch3.eth[0].bitrate = 1000Mbps
*.switch3.eth[1].bitrate = 2400Mbps
*.switch3.eth[2].bitrate = 2300Mbps
*.switch3.eth[3].bitrate = 1300Mbps
*.switch3.eth[4].bitrate = 2100Mbps
*.host4.eth[0].bitrate = 1000Mbps
*.switch4.eth[0].bitrate = 1000Mbps
*.switch4.eth[1].bitrate = 2300Mbps
*.switch4.eth[2].bitrate = 1800Mbps
*.switch4.eth[3].bitrate = 1300Mbps
*.switch4.eth[4].bitrate = 2400Mbps
*.switch4.eth[5].bitrate = 1400Mbps
*.switch4.eth[6].bitrate = 2100Mbps
*.host0.numApps = 2
*.host0.app[0].typename = "UdpSinkApp"
*.host0.app[0].io.localPort = 1000
*.host0.app[1].typename = "UdpSinkApp"
*.host0.app[1].io.localPort = 1001
*.host1.numApps = 8
*.host1.app[0].typename = "UdpSinkApp"
*.host1.app[0].io.localPort = 1000
*.host1.app[1].typename = "UdpBasicApp"
*.host1.app[1].destAddresses = "host3"
*.host1.app[1].source.packetNameFormat = "%M-%m-%c"
*.host1.app[1].source.displayStringTextFormat = "sent %p pk (%l)"
*.host1.app[1].messageLength = 13B
*.host1.app[1].sendInterval = 1ms
*.host1.app[1].startTime = 10ms
*.host1.app[1].stopTime = 33ms
*.host1.app[1].display-name = "type2_3"
*.host1.app[1].destPort = 1000
*.host1.app[2].typename = "UdpBasicApp"
*.host1.app[2].destAddresses = "host3"
*.host1.app[2].source.packetNameFormat = "%M-%m-%c"
*.host1.app[2].source.displayStringTextFormat = "sent %p pk (%l)"
*.host1.app[2].messageLength = 13B
*.host1.app[2].sendInterval = 1ms
*.host1.app[2].startTime = 42ms
*.host1.app[2].stopTime = 48ms
*.host1.app[2].display-name = "type2_3"
*.host1.app[2].destPort = 1000
*.host1.app[3].typename = "UdpBasicApp"
*.host1.app[3].destAddresses = "host3"
*.host1.app[3].source.packetNameFormat = "%M-%m-%c"
*.host1.app[3].source.displayStringTextFormat = "sent %p pk (%l)"
*.host1.app[3].messageLength = 13B
*.host1.app[3].sendInterval = 1ms
*.host1.app[3].startTime = 50ms
*.host1.app[3].stopTime = 61ms
*.host1.app[3].display-name = "type2_3"
*.host1.app[3].destPort = 1000
*.host1.app[4].typename = "UdpBasicApp"
*.host1.app[4].destAddresses = "host3"
*.host1.app[4].source.packetNameFormat = "%M-%m-%c"
*.host1.app[4].source.displayStringTextFormat = "sent %p pk (%l)"
*.host1.app[4].messageLength = 13B
*.host1.app[4].sendInterval = 1ms
*.host1.app[4].startTime = 63ms
*.host1.app[4].stopTime = 66ms
*.host1.app[4].display-name = "type2_3"
*.host1.app[4].destPort = 1000
*.host1.app[5].typename = "UdpBasicApp"
*.host1.app[5].destAddresses = "host3"
*.host1.app[5].source.packetNameFormat = "%M-%m-%c"
*.host1.app[5].source.displayStringTextFormat = "sent %p pk (%l)"
*.host1.app[5].messageLength = 13B
*.host1.app[5].sendInterval = 1ms
*.host1.app[5].startTime = 75ms
*.host1.app[5].stopTime = 77ms
*.host1.app[5].display-name = "type2_3"
*.host1.app[5].destPort = 1000
*.host1.app[6].typename = "UdpBasicApp"
*.host1.app[6].destAddresses = "host3"
*.host1.app[6].source.packetNameFormat = "%M-%m-%c"
*.host1.app[6].source.displayStringTextFormat = "sent %p pk (%l)"
*.host1.app[6].messageLength = 13B
*.host1.app[6].sendInterval = 1ms
*.host1.app[6].startTime = 78ms
*.host1.app[6].stopTime = 83ms
*.host1.app[6].display-name = "type2_3"
*.host1.app[6].destPort = 1000
*.host1.app[7].typename = "UdpBasicApp"
*.host1.app[7].destAddresses = "host3"
*.host1.app[7].source.packetNameFormat = "%M-%m-%c"
*.host1.app[7].source.displayStringTextFormat = "sent %p pk (%l)"
*.host1.app[7].messageLength = 13B
*.host1.app[7].sendInterval = 1ms
*.host1.app[7].startTime = 92ms
*.host1.app[7].stopTime = 100ms
*.host1.app[7].display-name = "type2_3"
*.host1.app[7].destPort = 1000
*.host2.numApps = 5
*.host2.app[0].typename = "UdpSourceApp"
*.host2.app[0].io.destAddress = "host1"
*.host2.app[0].source.packetNameFormat = "%M-%m-%c"
*.host2.app[0].source.displayStringTextFormat = "sent %p pk (%l)"
*.host2.app[0].source.packetLength = 24B
*.host2.app[0].source.productionInterval = 1ms
*.host2.app[0].display-name = "type1_0"
*.host2.app[0].io.destPort = 1000
*.host2.app[1].typename = "UdpSinkApp"
*.host2.app[1].io.localPort = 1000
*.host2.app[2].typename = "UdpBasicApp"
*.host2.app[2].destAddresses = "host0"
*.host2.app[2].source.packetNameFormat = "%M-%m-%c"
*.host2.app[2].source.displayStringTextFormat = "sent %p pk (%l)"
*.host2.app[2].messageLength = 22B
*.host2.app[2].sendInterval = 1ms
*.host2.app[2].startTime = 34ms
*.host2.app[2].stopTime = 42ms
*.host2.app[2].display-name = "type2_1"
*.host2.app[2].destPort = 1000
*.host2.app[3].typename = "UdpBasicApp"
*.host2.app[3].destAddresses = "host0"
*.host2.app[3].source.packetNameFormat = "%M-%m-%c"
*.host2.app[3].source.displayStringTextFormat = "sent %p pk (%l)"
*.host2.app[3].messageLength = 22B
*.host2.app[3].sendInterval = 1ms
*.host2.app[3].startTime = 47ms
*.host2.app[3].stopTime = 64ms
*.host2.app[3].display-name = "type2_1"
*.host2.app[3].destPort = 1000
*.host2.app[4].typename = "UdpBasicApp"
*.host2.app[4].destAddresses = "host0"
*.host2.app[4].source.packetNameFormat = "%M-%m-%c"
*.host2.app[4].source.displayStringTextFormat = "sent %p pk (%l)"
*.host2.app[4].messageLength = 22B
*.host2.app[4].sendInterval = 1ms
*.host2.app[4].startTime = 94ms
*.host2.app[4].stopTime = 100ms
*.host2.app[4].display-name = "type2_1"
*.host2.app[4].destPort = 1000
*.host3.numApps = 10
*.host3.app[0].typename = "UdpBasicApp"
*.host3.app[0].destAddresses = "host2"
*.host3.app[0].source.packetNameFormat = "%M-%m-%c"
*.host3.app[0].source.displayStringTextFormat = "sent %p pk (%l)"
*.host3.app[0].messageLength = 23B
*.host3.app[0].sendInterval = 1ms
*.host3.app[0].startTime = 3ms
*.host3.app[0].stopTime = 18ms
*.host3.app[0].display-name = "type2_0"
*.host3.app[0].destPort = 1000
*.host3.app[1].typename = "UdpBasicApp"
*.host3.app[1].destAddresses = "host2"
*.host3.app[1].source.packetNameFormat = "%M-%m-%c"
*.host3.app[1].source.displayStringTextFormat = "sent %p pk (%l)"
*.host3.app[1].messageLength = 23B
*.host3.app[1].sendInterval = 1ms
*.host3.app[1].startTime = 22ms
*.host3.app[1].stopTime = 23ms
*.host3.app[1].display-name = "type2_0"
*.host3.app[1].destPort = 1000
*.host3.app[2].typename = "UdpBasicApp"
*.host3.app[2].destAddresses = "host2"
*.host3.app[2].source.packetNameFormat = "%M-%m-%c"
*.host3.app[2].source.displayStringTextFormat = "sent %p pk (%l)"
*.host3.app[2].messageLength = 23B
*.host3.app[2].sendInterval = 1ms
*.host3.app[2].startTime = 53ms
*.host3.app[2].stopTime = 61ms
*.host3.app[2].display-name = "type2_0"
*.host3.app[2].destPort = 1000
*.host3.app[3].typename = "UdpBasicApp"
*.host3.app[3].destAddresses = "host2"
*.host3.app[3].source.packetNameFormat = "%M-%m-%c"
*.host3.app[3].source.displayStringTextFormat = "sent %p pk (%l)"
*.host3.app[3].messageLength = 23B
*.host3.app[3].sendInterval = 1ms
*.host3.app[3].startTime = 92ms
*.host3.app[3].stopTime = 97ms
*.host3.app[3].display-name = "type2_0"
*.host3.app[3].destPort = 1000
*.host3.app[4].typename = "UdpBasicApp"
*.host3.app[4].destAddresses = "host0"
*.host3.app[4].source.packetNameFormat = "%M-%m-%c"
*.host3.app[4].source.displayStringTextFormat = "sent %p pk (%l)"
*.host3.app[4].messageLength = 14B
*.host3.app[4].sendInterval = 1ms
*.host3.app[4].startTime = 20ms
*.host3.app[4].stopTime = 29ms
*.host3.app[4].display-name = "type2_2"
*.host3.app[4].destPort = 1001
*.host3.app[5].typename = "UdpBasicApp"
*.host3.app[5].destAddresses = "host0"
*.host3.app[5].source.packetNameFormat = "%M-%m-%c"
*.host3.app[5].source.displayStringTextFormat = "sent %p pk (%l)"
*.host3.app[5].messageLength = 14B
*.host3.app[5].sendInterval = 1ms
*.host3.app[5].startTime = 38ms
*.host3.app[5].stopTime = 42ms
*.host3.app[5].display-name = "type2_2"
*.host3.app[5].destPort = 1001
*.host3.app[6].typename = "UdpBasicApp"
*.host3.app[6].destAddresses = "host0"
*.host3.app[6].source.packetNameFormat = "%M-%m-%c"
*.host3.app[6].source.displayStringTextFormat = "sent %p pk (%l)"
*.host3.app[6].messageLength = 14B
*.host3.app[6].sendInterval = 1ms
*.host3.app[6].startTime = 43ms
*.host3.app[6].stopTime = 46ms
*.host3.app[6].display-name = "type2_2"
*.host3.app[6].destPort = 1001
*.host3.app[7].typename = "UdpBasicApp"
*.host3.app[7].destAddresses = "host0"
*.host3.app[7].source.packetNameFormat = "%M-%m-%c"
*.host3.app[7].source.displayStringTextFormat = "sent %p pk (%l)"
*.host3.app[7].messageLength = 14B
*.host3.app[7].sendInterval = 1ms
*.host3.app[7].startTime = 59ms
*.host3.app[7].stopTime = 77ms
*.host3.app[7].display-name = "type2_2"
*.host3.app[7].destPort = 1001
*.host3.app[8].typename = "UdpBasicApp"
*.host3.app[8].destAddresses = "host0"
*.host3.app[8].source.packetNameFormat = "%M-%m-%c"
*.host3.app[8].source.displayStringTextFormat = "sent %p pk (%l)"
*.host3.app[8].messageLength = 14B
*.host3.app[8].sendInterval = 1ms
*.host3.app[8].startTime = 85ms
*.host3.app[8].stopTime = 98ms
*.host3.app[8].display-name = "type2_2"
*.host3.app[8].destPort = 1001
*.host3.app[9].typename = "UdpSinkApp"
*.host3.app[9].io.localPort = 1000
*.host4.numApps = 0
*.streamRedundancyConfigurator.configuration = [
	{
		name: "S1-0",
		packetFilter: "*-type1_0-*",
		source: "host2",
		destination: "host1",
		trees: [[["host2", "switch2", "switch0", "switch1", "host1"]]]
	},
	{
		name: "S2-0",
		packetFilter: "*-type2_0-*",
		source: "host3",
		destination: "host2",
		trees: [[["host3", "switch3", "switch2", "host2"]]]
	},
	{
		name: "S2-1",
		packetFilter: "*-type2_1-*",
		source: "host2",
		destination: "host0",
		trees: [[["host2", "switch2", "switch0", "host0"]]]
	},
	{
		name: "S2-2",
		packetFilter: "*-type2_2-*",
		source: "host3",
		destination: "host0",
		trees: [[["host3", "switch3", "switch2", "switch0", "host0"]]]
	},
	{
		name: "S2-3",
		packetFilter: "*-type2_3-*",
		source: "host1",
		destination: "host3",
		trees: [[["host1", "switch1", "switch4", "switch3", "host3"]]]
	}]
	

