[General]
network = TSN_multipath
sim-time-limit = 10ms
*.macForwardingTableConfigurator.typename = ""
*.*.hasStreamRedundancy = true
*.*.bridging.streamRelay.typename = "StreamRelayLayer"
*.*.bridging.streamCoder.typename = "StreamCoderLayer"
*.streamRedundancyConfigurator.typename = "StreamRedundancyConfigurator"
*.host0.eth[0].bitrate = 1000Mbps
*.switch0.eth[0].bitrate = 1000Mbps
*.switch0.eth[1].bitrate = 1300Mbps
*.switch0.eth[2].bitrate = 1400Mbps
*.switch0.eth[3].bitrate = 1500Mbps
*.host1.eth[0].bitrate = 1000Mbps
*.switch1.eth[0].bitrate = 1000Mbps
*.switch1.eth[1].bitrate = 1400Mbps
*.switch1.eth[2].bitrate = 1900Mbps
*.switch1.eth[3].bitrate = 1800Mbps
*.switch1.eth[4].bitrate = 1500Mbps
*.host2.eth[0].bitrate = 1000Mbps
*.switch2.eth[0].bitrate = 1000Mbps
*.switch2.eth[1].bitrate = 1300Mbps
*.switch2.eth[2].bitrate = 1900Mbps
*.switch2.eth[3].bitrate = 1500Mbps
*.switch2.eth[4].bitrate = 2100Mbps
*.host3.eth[0].bitrate = 1000Mbps
*.switch3.eth[0].bitrate = 1000Mbps
*.switch3.eth[1].bitrate = 2100Mbps
*.switch3.eth[2].bitrate = 1500Mbps
*.switch3.eth[3].bitrate = 1200Mbps
*.host4.eth[0].bitrate = 1000Mbps
*.switch4.eth[0].bitrate = 1000Mbps
*.switch4.eth[1].bitrate = 1800Mbps
*.switch4.eth[2].bitrate = 1200Mbps
*.host0.numApps = 0
*.host1.numApps = 15
*.host1.app[0].typename = "UdpBasicApp"
*.host1.app[0].destAddresses = "host4"
*.host1.app[0].source.packetNameFormat = "%M-%m-%c"
*.host1.app[0].source.displayStringTextFormat = "sent %p pk (%l)"
*.host1.app[0].messageLength = 21B
*.host1.app[0].sendInterval = 1ms
*.host1.app[0].startTime = 1700us
*.host1.app[0].stopTime = 1800us
*.host1.app[0].display-name = "type2_1"
*.host1.app[0].destPort = 1000
*.host1.app[1].typename = "UdpBasicApp"
*.host1.app[1].destAddresses = "host4"
*.host1.app[1].source.packetNameFormat = "%M-%m-%c"
*.host1.app[1].source.displayStringTextFormat = "sent %p pk (%l)"
*.host1.app[1].messageLength = 21B
*.host1.app[1].sendInterval = 1ms
*.host1.app[1].startTime = 2100us
*.host1.app[1].stopTime = 3100us
*.host1.app[1].display-name = "type2_1"
*.host1.app[1].destPort = 1000
*.host1.app[2].typename = "UdpBasicApp"
*.host1.app[2].destAddresses = "host4"
*.host1.app[2].source.packetNameFormat = "%M-%m-%c"
*.host1.app[2].source.displayStringTextFormat = "sent %p pk (%l)"
*.host1.app[2].messageLength = 21B
*.host1.app[2].sendInterval = 1ms
*.host1.app[2].startTime = 4600us
*.host1.app[2].stopTime = 6000us
*.host1.app[2].display-name = "type2_1"
*.host1.app[2].destPort = 1000
*.host1.app[3].typename = "UdpBasicApp"
*.host1.app[3].destAddresses = "host4"
*.host1.app[3].source.packetNameFormat = "%M-%m-%c"
*.host1.app[3].source.displayStringTextFormat = "sent %p pk (%l)"
*.host1.app[3].messageLength = 21B
*.host1.app[3].sendInterval = 1ms
*.host1.app[3].startTime = 6800us
*.host1.app[3].stopTime = 7000us
*.host1.app[3].display-name = "type2_1"
*.host1.app[3].destPort = 1000
*.host1.app[4].typename = "UdpBasicApp"
*.host1.app[4].destAddresses = "host4"
*.host1.app[4].source.packetNameFormat = "%M-%m-%c"
*.host1.app[4].source.displayStringTextFormat = "sent %p pk (%l)"
*.host1.app[4].messageLength = 21B
*.host1.app[4].sendInterval = 1ms
*.host1.app[4].startTime = 8400us
*.host1.app[4].stopTime = 8900us
*.host1.app[4].display-name = "type2_1"
*.host1.app[4].destPort = 1000
*.host1.app[5].typename = "UdpBasicApp"
*.host1.app[5].destAddresses = "host4"
*.host1.app[5].source.packetNameFormat = "%M-%m-%c"
*.host1.app[5].source.displayStringTextFormat = "sent %p pk (%l)"
*.host1.app[5].messageLength = 21B
*.host1.app[5].sendInterval = 1ms
*.host1.app[5].startTime = 9800us
*.host1.app[5].stopTime = 10000us
*.host1.app[5].display-name = "type2_1"
*.host1.app[5].destPort = 1000
*.host1.app[6].typename = "UdpBasicApp"
*.host1.app[6].destAddresses = "host3"
*.host1.app[6].source.packetNameFormat = "%M-%m-%c"
*.host1.app[6].source.displayStringTextFormat = "sent %p pk (%l)"
*.host1.app[6].messageLength = 15B
*.host1.app[6].sendInterval = 1ms
*.host1.app[6].startTime = 1100us
*.host1.app[6].stopTime = 1700us
*.host1.app[6].display-name = "type2_2"
*.host1.app[6].destPort = 1001
*.host1.app[7].typename = "UdpBasicApp"
*.host1.app[7].destAddresses = "host3"
*.host1.app[7].source.packetNameFormat = "%M-%m-%c"
*.host1.app[7].source.displayStringTextFormat = "sent %p pk (%l)"
*.host1.app[7].messageLength = 15B
*.host1.app[7].sendInterval = 1ms
*.host1.app[7].startTime = 2000us
*.host1.app[7].stopTime = 2900us
*.host1.app[7].display-name = "type2_2"
*.host1.app[7].destPort = 1001
*.host1.app[8].typename = "UdpBasicApp"
*.host1.app[8].destAddresses = "host3"
*.host1.app[8].source.packetNameFormat = "%M-%m-%c"
*.host1.app[8].source.displayStringTextFormat = "sent %p pk (%l)"
*.host1.app[8].messageLength = 15B
*.host1.app[8].sendInterval = 1ms
*.host1.app[8].startTime = 3300us
*.host1.app[8].stopTime = 3400us
*.host1.app[8].display-name = "type2_2"
*.host1.app[8].destPort = 1001
*.host1.app[9].typename = "UdpBasicApp"
*.host1.app[9].destAddresses = "host3"
*.host1.app[9].source.packetNameFormat = "%M-%m-%c"
*.host1.app[9].source.displayStringTextFormat = "sent %p pk (%l)"
*.host1.app[9].messageLength = 15B
*.host1.app[9].sendInterval = 1ms
*.host1.app[9].startTime = 3600us
*.host1.app[9].stopTime = 3700us
*.host1.app[9].display-name = "type2_2"
*.host1.app[9].destPort = 1001
*.host1.app[10].typename = "UdpBasicApp"
*.host1.app[10].destAddresses = "host3"
*.host1.app[10].source.packetNameFormat = "%M-%m-%c"
*.host1.app[10].source.displayStringTextFormat = "sent %p pk (%l)"
*.host1.app[10].messageLength = 15B
*.host1.app[10].sendInterval = 1ms
*.host1.app[10].startTime = 3900us
*.host1.app[10].stopTime = 4200us
*.host1.app[10].display-name = "type2_2"
*.host1.app[10].destPort = 1001
*.host1.app[11].typename = "UdpBasicApp"
*.host1.app[11].destAddresses = "host3"
*.host1.app[11].source.packetNameFormat = "%M-%m-%c"
*.host1.app[11].source.displayStringTextFormat = "sent %p pk (%l)"
*.host1.app[11].messageLength = 15B
*.host1.app[11].sendInterval = 1ms
*.host1.app[11].startTime = 4400us
*.host1.app[11].stopTime = 4500us
*.host1.app[11].display-name = "type2_2"
*.host1.app[11].destPort = 1001
*.host1.app[12].typename = "UdpBasicApp"
*.host1.app[12].destAddresses = "host3"
*.host1.app[12].source.packetNameFormat = "%M-%m-%c"
*.host1.app[12].source.displayStringTextFormat = "sent %p pk (%l)"
*.host1.app[12].messageLength = 15B
*.host1.app[12].sendInterval = 1ms
*.host1.app[12].startTime = 5700us
*.host1.app[12].stopTime = 7500us
*.host1.app[12].display-name = "type2_2"
*.host1.app[12].destPort = 1001
*.host1.app[13].typename = "UdpBasicApp"
*.host1.app[13].destAddresses = "host3"
*.host1.app[13].source.packetNameFormat = "%M-%m-%c"
*.host1.app[13].source.displayStringTextFormat = "sent %p pk (%l)"
*.host1.app[13].messageLength = 15B
*.host1.app[13].sendInterval = 1ms
*.host1.app[13].startTime = 7600us
*.host1.app[13].stopTime = 9000us
*.host1.app[13].display-name = "type2_2"
*.host1.app[13].destPort = 1001
*.host1.app[14].typename = "UdpBasicApp"
*.host1.app[14].destAddresses = "host3"
*.host1.app[14].source.packetNameFormat = "%M-%m-%c"
*.host1.app[14].source.displayStringTextFormat = "sent %p pk (%l)"
*.host1.app[14].messageLength = 15B
*.host1.app[14].sendInterval = 1ms
*.host1.app[14].startTime = 9400us
*.host1.app[14].stopTime = 10000us
*.host1.app[14].display-name = "type2_2"
*.host1.app[14].destPort = 1001
*.host2.numApps = 2
*.host2.app[0].typename = "UdpSourceApp"
*.host2.app[0].io.destAddress = "host3"
*.host2.app[0].source.packetNameFormat = "%M-%m-%c"
*.host2.app[0].source.displayStringTextFormat = "sent %p pk (%l)"
*.host2.app[0].source.packetLength = 21B
*.host2.app[0].source.productionInterval = 1ms
*.host2.app[0].display-name = "type1_0"
*.host2.app[0].io.destPort = 1000
*.host2.app[1].typename = "UdpSinkApp"
*.host2.app[1].io.localPort = 1000
*.host3.numApps = 2
*.host3.app[0].typename = "UdpSinkApp"
*.host3.app[0].io.localPort = 1000
*.host3.app[1].typename = "UdpSinkApp"
*.host3.app[1].io.localPort = 1001
*.host4.numApps = 5
*.host4.app[0].typename = "UdpBasicApp"
*.host4.app[0].destAddresses = "host2"
*.host4.app[0].source.packetNameFormat = "%M-%m-%c"
*.host4.app[0].source.displayStringTextFormat = "sent %p pk (%l)"
*.host4.app[0].messageLength = 19B
*.host4.app[0].sendInterval = 1ms
*.host4.app[0].startTime = 700us
*.host4.app[0].stopTime = 1100us
*.host4.app[0].display-name = "type2_0"
*.host4.app[0].destPort = 1000
*.host4.app[1].typename = "UdpBasicApp"
*.host4.app[1].destAddresses = "host2"
*.host4.app[1].source.packetNameFormat = "%M-%m-%c"
*.host4.app[1].source.displayStringTextFormat = "sent %p pk (%l)"
*.host4.app[1].messageLength = 19B
*.host4.app[1].sendInterval = 1ms
*.host4.app[1].startTime = 1800us
*.host4.app[1].stopTime = 3700us
*.host4.app[1].display-name = "type2_0"
*.host4.app[1].destPort = 1000
*.host4.app[2].typename = "UdpBasicApp"
*.host4.app[2].destAddresses = "host2"
*.host4.app[2].source.packetNameFormat = "%M-%m-%c"
*.host4.app[2].source.displayStringTextFormat = "sent %p pk (%l)"
*.host4.app[2].messageLength = 19B
*.host4.app[2].sendInterval = 1ms
*.host4.app[2].startTime = 3800us
*.host4.app[2].stopTime = 4000us
*.host4.app[2].display-name = "type2_0"
*.host4.app[2].destPort = 1000
*.host4.app[3].typename = "UdpBasicApp"
*.host4.app[3].destAddresses = "host2"
*.host4.app[3].source.packetNameFormat = "%M-%m-%c"
*.host4.app[3].source.displayStringTextFormat = "sent %p pk (%l)"
*.host4.app[3].messageLength = 19B
*.host4.app[3].sendInterval = 1ms
*.host4.app[3].startTime = 5900us
*.host4.app[3].stopTime = 6600us
*.host4.app[3].display-name = "type2_0"
*.host4.app[3].destPort = 1000
*.host4.app[4].typename = "UdpSinkApp"
*.host4.app[4].io.localPort = 1000
*.streamRedundancyConfigurator.configuration = [
	{
		name: "S1-0",
		packetFilter: "*-type1_0-*",
		source: "host2",
		destination: "host3",
		trees: [[["host2", "switch2", "switch3", "host3"]]]
	},
	{
		name: "S2-0",
		packetFilter: "*-type2_0-*",
		source: "host4",
		destination: "host2",
		trees: [[["host4", "switch4", "switch3", "switch1", "switch2", "host2"]]]
	},
	{
		name: "S2-1",
		packetFilter: "*-type2_1-*",
		source: "host1",
		destination: "host4",
		trees: [[["host1", "switch1", "switch4", "host4"]]]
	},
	{
		name: "S2-2",
		packetFilter: "*-type2_2-*",
		source: "host1",
		destination: "host3",
		trees: [[["host1", "switch1", "switch2", "switch3", "host3"]]]
	}]
	

