
[General]
network = TSN_multipath
sim-time-limit = 10ms

# disable automatic MAC forwarding table configuration
*.macForwardingTableConfigurator.typename = ""

# enable frame replication and elimination
*.*.hasStreamRedundancy = true

# enable stream policing in layer 2
*.*.bridging.streamRelay.typename = "StreamRelayLayer"
*.*.bridging.streamCoder.typename = "StreamCoderLayer"

# enable automatic stream redundancy configurator
*.streamRedundancyConfigurator.typename = "StreamRedundancyConfigurator"

*.host0.eth[0].bitrate = 100Mbps
*.switch0.eth[0].bitrate = 100Mbps
*.switch0.eth[1].bitrate = 140Mbps
*.switch0.eth[2].bitrate = 170Mbps
*.switch0.eth[3].bitrate = 230Mbps
*.switch0.eth[4].bitrate = 160Mbps
*.switch0.eth[5].bitrate = 200Mbps
*.switch0.eth[6].bitrate = 230Mbps
*.switch0.eth[7].bitrate = 210Mbps
*.switch0.eth[8].bitrate = 180Mbps
*.switch0.eth[9].bitrate = 180Mbps
*.switch0.eth[10].bitrate = 210Mbps
*.switch0.eth[11].bitrate = 120Mbps
*.switch0.eth[12].bitrate = 220Mbps
*.switch0.eth[13].bitrate = 170Mbps
*.switch0.eth[14].bitrate = 180Mbps
*.switch0.eth[15].bitrate = 240Mbps
*.switch0.eth[16].bitrate = 190Mbps
*.switch0.eth[17].bitrate = 210Mbps
*.switch0.eth[18].bitrate = 140Mbps
*.switch0.eth[19].bitrate = 190Mbps
*.switch0.eth[20].bitrate = 190Mbps
*.switch0.eth[21].bitrate = 240Mbps
*.switch0.eth[22].bitrate = 130Mbps
*.switch0.eth[23].bitrate = 160Mbps
*.switch0.eth[24].bitrate = 180Mbps
*.switch0.eth[25].bitrate = 240Mbps
*.switch0.eth[26].bitrate = 240Mbps
*.switch0.eth[27].bitrate = 170Mbps
*.switch0.eth[28].bitrate = 150Mbps
*.switch0.eth[29].bitrate = 230Mbps
*.switch0.eth[30].bitrate = 150Mbps
*.switch0.eth[31].bitrate = 240Mbps
*.switch0.eth[32].bitrate = 180Mbps
*.switch0.eth[33].bitrate = 150Mbps
*.switch0.eth[34].bitrate = 140Mbps
*.switch0.eth[35].bitrate = 230Mbps
*.switch0.eth[36].bitrate = 120Mbps
*.switch0.eth[37].bitrate = 230Mbps
*.switch0.eth[38].bitrate = 140Mbps
*.switch0.eth[39].bitrate = 190Mbps
*.switch0.eth[40].bitrate = 130Mbps
*.switch0.eth[41].bitrate = 230Mbps
*.switch0.eth[42].bitrate = 120Mbps
*.switch0.eth[43].bitrate = 210Mbps
*.switch0.eth[44].bitrate = 160Mbps
*.switch0.eth[45].bitrate = 210Mbps
*.switch0.eth[46].bitrate = 240Mbps
*.switch0.eth[47].bitrate = 220Mbps
*.switch0.eth[48].bitrate = 190Mbps
*.switch0.eth[49].bitrate = 140Mbps
*.switch0.eth[50].bitrate = 210Mbps
*.switch0.eth[51].bitrate = 180Mbps
*.switch0.eth[52].bitrate = 200Mbps
*.switch0.eth[53].bitrate = 220Mbps
*.switch0.eth[54].bitrate = 180Mbps
*.switch0.eth[55].bitrate = 190Mbps
*.switch0.eth[56].bitrate = 220Mbps
*.switch0.eth[57].bitrate = 130Mbps
*.switch0.eth[58].bitrate = 190Mbps
*.switch0.eth[59].bitrate = 210Mbps
*.switch0.eth[60].bitrate = 180Mbps
*.switch0.eth[61].bitrate = 230Mbps
*.switch0.eth[62].bitrate = 120Mbps
*.switch0.eth[63].bitrate = 220Mbps
*.switch0.eth[64].bitrate = 220Mbps
*.switch0.eth[65].bitrate = 150Mbps
*.switch0.eth[66].bitrate = 130Mbps
*.switch0.eth[67].bitrate = 150Mbps
*.switch0.eth[68].bitrate = 160Mbps
*.switch0.eth[69].bitrate = 160Mbps
*.switch0.eth[70].bitrate = 170Mbps
*.switch0.eth[71].bitrate = 190Mbps
*.switch0.eth[72].bitrate = 150Mbps
*.switch0.eth[73].bitrate = 230Mbps
*.host1.eth[0].bitrate = 100Mbps
*.switch1.eth[0].bitrate = 100Mbps
*.switch1.eth[1].bitrate = 140Mbps
*.switch1.eth[2].bitrate = 240Mbps
*.switch1.eth[3].bitrate = 140Mbps
*.switch1.eth[4].bitrate = 190Mbps
*.switch1.eth[5].bitrate = 150Mbps
*.switch1.eth[6].bitrate = 130Mbps
*.switch1.eth[7].bitrate = 240Mbps
*.switch1.eth[8].bitrate = 200Mbps
*.switch1.eth[9].bitrate = 120Mbps
*.switch1.eth[10].bitrate = 180Mbps
*.switch1.eth[11].bitrate = 150Mbps
*.switch1.eth[12].bitrate = 180Mbps
*.switch1.eth[13].bitrate = 230Mbps
*.switch1.eth[14].bitrate = 220Mbps
*.switch1.eth[15].bitrate = 240Mbps
*.switch1.eth[16].bitrate = 150Mbps
*.switch1.eth[17].bitrate = 140Mbps
*.switch1.eth[18].bitrate = 220Mbps
*.switch1.eth[19].bitrate = 130Mbps
*.switch1.eth[20].bitrate = 170Mbps
*.switch1.eth[21].bitrate = 190Mbps
*.switch1.eth[22].bitrate = 200Mbps
*.switch1.eth[23].bitrate = 120Mbps
*.switch1.eth[24].bitrate = 210Mbps
*.switch1.eth[25].bitrate = 230Mbps
*.switch1.eth[26].bitrate = 210Mbps
*.switch1.eth[27].bitrate = 170Mbps
*.switch1.eth[28].bitrate = 240Mbps
*.switch1.eth[29].bitrate = 220Mbps
*.switch1.eth[30].bitrate = 150Mbps
*.switch1.eth[31].bitrate = 150Mbps
*.switch1.eth[32].bitrate = 150Mbps
*.switch1.eth[33].bitrate = 240Mbps
*.switch1.eth[34].bitrate = 230Mbps
*.switch1.eth[35].bitrate = 200Mbps
*.switch1.eth[36].bitrate = 190Mbps
*.switch1.eth[37].bitrate = 190Mbps
*.switch1.eth[38].bitrate = 120Mbps
*.switch1.eth[39].bitrate = 190Mbps
*.switch1.eth[40].bitrate = 190Mbps
*.switch1.eth[41].bitrate = 230Mbps
*.switch1.eth[42].bitrate = 170Mbps
*.switch1.eth[43].bitrate = 130Mbps
*.host2.eth[0].bitrate = 100Mbps
*.switch2.eth[0].bitrate = 100Mbps
*.switch2.eth[1].bitrate = 170Mbps
*.switch2.eth[2].bitrate = 220Mbps
*.switch2.eth[3].bitrate = 210Mbps
*.switch2.eth[4].bitrate = 180Mbps
*.switch2.eth[5].bitrate = 160Mbps
*.switch2.eth[6].bitrate = 190Mbps
*.switch2.eth[7].bitrate = 240Mbps
*.switch2.eth[8].bitrate = 190Mbps
*.switch2.eth[9].bitrate = 170Mbps
*.switch2.eth[10].bitrate = 190Mbps
*.switch2.eth[11].bitrate = 140Mbps
*.switch2.eth[12].bitrate = 120Mbps
*.switch2.eth[13].bitrate = 230Mbps
*.switch2.eth[14].bitrate = 220Mbps
*.switch2.eth[15].bitrate = 240Mbps
*.switch2.eth[16].bitrate = 130Mbps
*.switch2.eth[17].bitrate = 180Mbps
*.switch2.eth[18].bitrate = 210Mbps
*.switch2.eth[19].bitrate = 170Mbps
*.switch2.eth[20].bitrate = 140Mbps
*.switch2.eth[21].bitrate = 120Mbps
*.switch2.eth[22].bitrate = 180Mbps
*.switch2.eth[23].bitrate = 180Mbps
*.switch2.eth[24].bitrate = 170Mbps
*.switch2.eth[25].bitrate = 190Mbps
*.switch2.eth[26].bitrate = 240Mbps
*.switch2.eth[27].bitrate = 190Mbps
*.switch2.eth[28].bitrate = 150Mbps
*.switch2.eth[29].bitrate = 240Mbps
*.switch2.eth[30].bitrate = 130Mbps
*.switch2.eth[31].bitrate = 240Mbps
*.switch2.eth[32].bitrate = 200Mbps
*.switch2.eth[33].bitrate = 130Mbps
*.switch2.eth[34].bitrate = 190Mbps
*.switch2.eth[35].bitrate = 120Mbps
*.switch2.eth[36].bitrate = 220Mbps
*.switch2.eth[37].bitrate = 180Mbps
*.switch2.eth[38].bitrate = 180Mbps
*.switch2.eth[39].bitrate = 230Mbps
*.switch2.eth[40].bitrate = 200Mbps
*.switch2.eth[41].bitrate = 190Mbps
*.switch2.eth[42].bitrate = 160Mbps
*.switch2.eth[43].bitrate = 210Mbps
*.switch2.eth[44].bitrate = 130Mbps
*.switch2.eth[45].bitrate = 240Mbps
*.switch2.eth[46].bitrate = 240Mbps
*.switch2.eth[47].bitrate = 210Mbps
*.switch2.eth[48].bitrate = 160Mbps
*.switch2.eth[49].bitrate = 160Mbps
*.switch2.eth[50].bitrate = 150Mbps
*.switch2.eth[51].bitrate = 170Mbps
*.switch2.eth[52].bitrate = 190Mbps
*.switch2.eth[53].bitrate = 170Mbps
*.switch2.eth[54].bitrate = 170Mbps
*.switch2.eth[55].bitrate = 180Mbps
*.switch2.eth[56].bitrate = 120Mbps
*.switch2.eth[57].bitrate = 180Mbps
*.switch2.eth[58].bitrate = 240Mbps
*.switch2.eth[59].bitrate = 130Mbps
*.switch2.eth[60].bitrate = 140Mbps
*.switch2.eth[61].bitrate = 240Mbps
*.switch2.eth[62].bitrate = 200Mbps
*.host3.eth[0].bitrate = 100Mbps
*.switch3.eth[0].bitrate = 100Mbps
*.switch3.eth[1].bitrate = 210Mbps
*.switch3.eth[2].bitrate = 180Mbps
*.switch3.eth[3].bitrate = 200Mbps
*.switch3.eth[4].bitrate = 210Mbps
*.switch3.eth[5].bitrate = 170Mbps
*.switch3.eth[6].bitrate = 130Mbps
*.switch3.eth[7].bitrate = 150Mbps
*.switch3.eth[8].bitrate = 120Mbps
*.switch3.eth[9].bitrate = 220Mbps
*.switch3.eth[10].bitrate = 130Mbps
*.switch3.eth[11].bitrate = 180Mbps
*.switch3.eth[12].bitrate = 130Mbps
*.switch3.eth[13].bitrate = 130Mbps
*.switch3.eth[14].bitrate = 140Mbps
*.switch3.eth[15].bitrate = 150Mbps
*.switch3.eth[16].bitrate = 240Mbps
*.switch3.eth[17].bitrate = 140Mbps
*.switch3.eth[18].bitrate = 220Mbps
*.switch3.eth[19].bitrate = 170Mbps
*.switch3.eth[20].bitrate = 240Mbps
*.switch3.eth[21].bitrate = 130Mbps
*.switch3.eth[22].bitrate = 230Mbps
*.switch3.eth[23].bitrate = 130Mbps
*.switch3.eth[24].bitrate = 240Mbps
*.switch3.eth[25].bitrate = 240Mbps
*.switch3.eth[26].bitrate = 210Mbps
*.switch3.eth[27].bitrate = 240Mbps
*.switch3.eth[28].bitrate = 240Mbps
*.switch3.eth[29].bitrate = 200Mbps
*.switch3.eth[30].bitrate = 130Mbps
*.switch3.eth[31].bitrate = 160Mbps
*.switch3.eth[32].bitrate = 120Mbps
*.switch3.eth[33].bitrate = 240Mbps
*.switch3.eth[34].bitrate = 150Mbps
*.host4.eth[0].bitrate = 100Mbps
*.switch4.eth[0].bitrate = 100Mbps
*.switch4.eth[1].bitrate = 230Mbps
*.switch4.eth[2].bitrate = 180Mbps
*.switch4.eth[3].bitrate = 190Mbps
*.switch4.eth[4].bitrate = 230Mbps
*.switch4.eth[5].bitrate = 230Mbps
*.switch4.eth[6].bitrate = 170Mbps
*.switch4.eth[7].bitrate = 180Mbps
*.switch4.eth[8].bitrate = 180Mbps
*.switch4.eth[9].bitrate = 170Mbps
*.switch4.eth[10].bitrate = 180Mbps
*.switch4.eth[11].bitrate = 200Mbps
*.switch4.eth[12].bitrate = 210Mbps
*.switch4.eth[13].bitrate = 180Mbps
*.switch4.eth[14].bitrate = 140Mbps
*.switch4.eth[15].bitrate = 160Mbps
*.switch4.eth[16].bitrate = 200Mbps
*.switch4.eth[17].bitrate = 160Mbps
*.switch4.eth[18].bitrate = 180Mbps
*.switch4.eth[19].bitrate = 220Mbps
*.switch4.eth[20].bitrate = 210Mbps
*.switch4.eth[21].bitrate = 220Mbps
*.switch4.eth[22].bitrate = 120Mbps
*.switch4.eth[23].bitrate = 220Mbps
*.switch4.eth[24].bitrate = 150Mbps
*.switch4.eth[25].bitrate = 220Mbps
*.switch4.eth[26].bitrate = 220Mbps
*.switch4.eth[27].bitrate = 120Mbps
*.switch4.eth[28].bitrate = 220Mbps
*.switch4.eth[29].bitrate = 120Mbps
*.switch4.eth[30].bitrate = 170Mbps
*.switch4.eth[31].bitrate = 140Mbps
*.switch4.eth[32].bitrate = 200Mbps
*.switch4.eth[33].bitrate = 160Mbps
*.switch4.eth[34].bitrate = 190Mbps
*.switch4.eth[35].bitrate = 220Mbps
*.switch4.eth[36].bitrate = 160Mbps
*.switch4.eth[37].bitrate = 170Mbps
*.switch4.eth[38].bitrate = 120Mbps
*.switch4.eth[39].bitrate = 230Mbps
*.switch4.eth[40].bitrate = 230Mbps
*.switch4.eth[41].bitrate = 180Mbps
*.switch4.eth[42].bitrate = 210Mbps
*.switch4.eth[43].bitrate = 150Mbps
*.switch4.eth[44].bitrate = 120Mbps
*.switch4.eth[45].bitrate = 170Mbps
*.switch4.eth[46].bitrate = 140Mbps
*.switch4.eth[47].bitrate = 220Mbps
*.switch4.eth[48].bitrate = 140Mbps
*.switch4.eth[49].bitrate = 210Mbps
*.switch4.eth[50].bitrate = 220Mbps
*.switch4.eth[51].bitrate = 210Mbps
*.switch4.eth[52].bitrate = 140Mbps
*.switch4.eth[53].bitrate = 120Mbps
*.switch4.eth[54].bitrate = 170Mbps
*.switch4.eth[55].bitrate = 170Mbps
*.switch4.eth[56].bitrate = 150Mbps
*.switch4.eth[57].bitrate = 120Mbps
*.switch4.eth[58].bitrate = 230Mbps
*.switch4.eth[59].bitrate = 180Mbps
*.switch4.eth[60].bitrate = 130Mbps
*.switch4.eth[61].bitrate = 240Mbps
*.switch4.eth[62].bitrate = 130Mbps
*.switch4.eth[63].bitrate = 220Mbps
*.switch4.eth[64].bitrate = 140Mbps
*.switch4.eth[65].bitrate = 190Mbps
*.switch4.eth[66].bitrate = 240Mbps
*.switch4.eth[67].bitrate = 220Mbps
*.switch4.eth[68].bitrate = 230Mbps
*.switch4.eth[69].bitrate = 140Mbps
*.switch4.eth[70].bitrate = 130Mbps
*.switch4.eth[71].bitrate = 220Mbps
*.switch4.eth[72].bitrate = 230Mbps
*.switch4.eth[73].bitrate = 150Mbps
*.switch4.eth[74].bitrate = 220Mbps
*.host5.eth[0].bitrate = 100Mbps
*.switch5.eth[0].bitrate = 100Mbps
*.switch5.eth[1].bitrate = 160Mbps
*.switch5.eth[2].bitrate = 140Mbps
*.switch5.eth[3].bitrate = 160Mbps
*.switch5.eth[4].bitrate = 180Mbps
*.switch5.eth[5].bitrate = 140Mbps
*.switch5.eth[6].bitrate = 130Mbps
*.switch5.eth[7].bitrate = 200Mbps
*.switch5.eth[8].bitrate = 190Mbps
*.switch5.eth[9].bitrate = 150Mbps
*.switch5.eth[10].bitrate = 220Mbps
*.switch5.eth[11].bitrate = 180Mbps
*.switch5.eth[12].bitrate = 160Mbps
*.switch5.eth[13].bitrate = 160Mbps
*.switch5.eth[14].bitrate = 120Mbps
*.switch5.eth[15].bitrate = 180Mbps
*.switch5.eth[16].bitrate = 220Mbps
*.switch5.eth[17].bitrate = 140Mbps
*.switch5.eth[18].bitrate = 130Mbps
*.switch5.eth[19].bitrate = 210Mbps
*.switch5.eth[20].bitrate = 190Mbps
*.switch5.eth[21].bitrate = 240Mbps
*.switch5.eth[22].bitrate = 120Mbps
*.switch5.eth[23].bitrate = 220Mbps
*.switch5.eth[24].bitrate = 180Mbps
*.switch5.eth[25].bitrate = 200Mbps
*.switch5.eth[26].bitrate = 130Mbps
*.switch5.eth[27].bitrate = 150Mbps
*.switch5.eth[28].bitrate = 220Mbps
*.switch5.eth[29].bitrate = 210Mbps
*.switch5.eth[30].bitrate = 210Mbps
*.switch5.eth[31].bitrate = 230Mbps
*.switch5.eth[32].bitrate = 160Mbps
*.switch5.eth[33].bitrate = 140Mbps
*.switch5.eth[34].bitrate = 210Mbps
*.switch5.eth[35].bitrate = 210Mbps
*.switch5.eth[36].bitrate = 180Mbps
*.switch5.eth[37].bitrate = 130Mbps
*.switch5.eth[38].bitrate = 210Mbps
*.switch5.eth[39].bitrate = 170Mbps
*.switch5.eth[40].bitrate = 160Mbps
*.switch5.eth[41].bitrate = 190Mbps
*.switch5.eth[42].bitrate = 230Mbps
*.switch5.eth[43].bitrate = 210Mbps
*.switch5.eth[44].bitrate = 120Mbps
*.switch5.eth[45].bitrate = 220Mbps
*.switch5.eth[46].bitrate = 130Mbps
*.switch5.eth[47].bitrate = 200Mbps
*.switch5.eth[48].bitrate = 130Mbps
*.host6.eth[0].bitrate = 100Mbps
*.switch6.eth[0].bitrate = 100Mbps
*.switch6.eth[1].bitrate = 200Mbps
*.switch6.eth[2].bitrate = 190Mbps
*.switch6.eth[3].bitrate = 180Mbps
*.switch6.eth[4].bitrate = 200Mbps
*.switch6.eth[5].bitrate = 210Mbps
*.switch6.eth[6].bitrate = 240Mbps
*.switch6.eth[7].bitrate = 130Mbps
*.switch6.eth[8].bitrate = 230Mbps
*.switch6.eth[9].bitrate = 160Mbps
*.switch6.eth[10].bitrate = 230Mbps
*.switch6.eth[11].bitrate = 130Mbps
*.switch6.eth[12].bitrate = 140Mbps
*.switch6.eth[13].bitrate = 230Mbps
*.switch6.eth[14].bitrate = 160Mbps
*.switch6.eth[15].bitrate = 130Mbps
*.switch6.eth[16].bitrate = 140Mbps
*.switch6.eth[17].bitrate = 120Mbps
*.switch6.eth[18].bitrate = 210Mbps
*.switch6.eth[19].bitrate = 230Mbps
*.switch6.eth[20].bitrate = 170Mbps
*.switch6.eth[21].bitrate = 160Mbps
*.switch6.eth[22].bitrate = 240Mbps
*.switch6.eth[23].bitrate = 130Mbps
*.switch6.eth[24].bitrate = 150Mbps
*.switch6.eth[25].bitrate = 180Mbps
*.switch6.eth[26].bitrate = 130Mbps
*.switch6.eth[27].bitrate = 210Mbps
*.switch6.eth[28].bitrate = 140Mbps
*.switch6.eth[29].bitrate = 140Mbps
*.switch6.eth[30].bitrate = 180Mbps
*.switch6.eth[31].bitrate = 190Mbps
*.host7.eth[0].bitrate = 100Mbps
*.switch7.eth[0].bitrate = 100Mbps
*.switch7.eth[1].bitrate = 230Mbps
*.switch7.eth[2].bitrate = 240Mbps
*.switch7.eth[3].bitrate = 170Mbps
*.switch7.eth[4].bitrate = 200Mbps
*.switch7.eth[5].bitrate = 210Mbps
*.switch7.eth[6].bitrate = 190Mbps
*.switch7.eth[7].bitrate = 150Mbps
*.switch7.eth[8].bitrate = 130Mbps
*.switch7.eth[9].bitrate = 160Mbps
*.switch7.eth[10].bitrate = 190Mbps
*.switch7.eth[11].bitrate = 240Mbps
*.switch7.eth[12].bitrate = 200Mbps
*.switch7.eth[13].bitrate = 190Mbps
*.switch7.eth[14].bitrate = 180Mbps
*.switch7.eth[15].bitrate = 240Mbps
*.switch7.eth[16].bitrate = 190Mbps
*.switch7.eth[17].bitrate = 140Mbps
*.switch7.eth[18].bitrate = 170Mbps
*.switch7.eth[19].bitrate = 190Mbps
*.switch7.eth[20].bitrate = 240Mbps
*.switch7.eth[21].bitrate = 210Mbps
*.switch7.eth[22].bitrate = 140Mbps
*.switch7.eth[23].bitrate = 150Mbps
*.switch7.eth[24].bitrate = 160Mbps
*.switch7.eth[25].bitrate = 140Mbps
*.switch7.eth[26].bitrate = 240Mbps
*.switch7.eth[27].bitrate = 190Mbps
*.switch7.eth[28].bitrate = 160Mbps
*.switch7.eth[29].bitrate = 220Mbps
*.switch7.eth[30].bitrate = 180Mbps
*.switch7.eth[31].bitrate = 230Mbps
*.switch7.eth[32].bitrate = 240Mbps
*.switch7.eth[33].bitrate = 190Mbps
*.switch7.eth[34].bitrate = 230Mbps
*.switch7.eth[35].bitrate = 170Mbps
*.switch7.eth[36].bitrate = 230Mbps
*.switch7.eth[37].bitrate = 180Mbps
*.switch7.eth[38].bitrate = 180Mbps
*.switch7.eth[39].bitrate = 180Mbps
*.switch7.eth[40].bitrate = 230Mbps
*.switch7.eth[41].bitrate = 150Mbps
*.switch7.eth[42].bitrate = 140Mbps
*.switch7.eth[43].bitrate = 220Mbps
*.switch7.eth[44].bitrate = 180Mbps
*.switch7.eth[45].bitrate = 200Mbps
*.switch7.eth[46].bitrate = 140Mbps
*.switch7.eth[47].bitrate = 180Mbps
*.switch7.eth[48].bitrate = 170Mbps
*.host8.eth[0].bitrate = 100Mbps
*.switch8.eth[0].bitrate = 100Mbps
*.switch8.eth[1].bitrate = 210Mbps
*.switch8.eth[2].bitrate = 190Mbps
*.switch8.eth[3].bitrate = 190Mbps
*.switch8.eth[4].bitrate = 180Mbps
*.switch8.eth[5].bitrate = 160Mbps
*.switch8.eth[6].bitrate = 140Mbps
*.switch8.eth[7].bitrate = 160Mbps
*.switch8.eth[8].bitrate = 170Mbps
*.switch8.eth[9].bitrate = 150Mbps
*.switch8.eth[10].bitrate = 130Mbps
*.switch8.eth[11].bitrate = 170Mbps
*.switch8.eth[12].bitrate = 230Mbps
*.switch8.eth[13].bitrate = 220Mbps
*.switch8.eth[14].bitrate = 200Mbps
*.switch8.eth[15].bitrate = 160Mbps
*.switch8.eth[16].bitrate = 120Mbps
*.switch8.eth[17].bitrate = 120Mbps
*.switch8.eth[18].bitrate = 220Mbps
*.switch8.eth[19].bitrate = 210Mbps
*.switch8.eth[20].bitrate = 240Mbps
*.switch8.eth[21].bitrate = 140Mbps
*.switch8.eth[22].bitrate = 160Mbps
*.switch8.eth[23].bitrate = 190Mbps
*.switch8.eth[24].bitrate = 210Mbps
*.switch8.eth[25].bitrate = 130Mbps
*.switch8.eth[26].bitrate = 140Mbps
*.switch8.eth[27].bitrate = 210Mbps
*.switch8.eth[28].bitrate = 160Mbps
*.switch8.eth[29].bitrate = 140Mbps
*.switch8.eth[30].bitrate = 150Mbps
*.switch8.eth[31].bitrate = 230Mbps
*.switch8.eth[32].bitrate = 160Mbps
*.switch8.eth[33].bitrate = 210Mbps
*.switch8.eth[34].bitrate = 190Mbps
*.switch8.eth[35].bitrate = 180Mbps
*.switch8.eth[36].bitrate = 170Mbps
*.switch8.eth[37].bitrate = 150Mbps
*.switch8.eth[38].bitrate = 150Mbps
*.switch8.eth[39].bitrate = 230Mbps
*.switch8.eth[40].bitrate = 170Mbps
*.switch8.eth[41].bitrate = 160Mbps
*.switch8.eth[42].bitrate = 160Mbps
*.switch8.eth[43].bitrate = 240Mbps
*.switch8.eth[44].bitrate = 220Mbps
*.switch8.eth[45].bitrate = 200Mbps
*.switch8.eth[46].bitrate = 230Mbps
*.switch8.eth[47].bitrate = 230Mbps
*.switch8.eth[48].bitrate = 120Mbps
*.switch8.eth[49].bitrate = 240Mbps
*.switch8.eth[50].bitrate = 170Mbps
*.switch8.eth[51].bitrate = 160Mbps
*.switch8.eth[52].bitrate = 190Mbps
*.switch8.eth[53].bitrate = 160Mbps
*.switch8.eth[54].bitrate = 180Mbps
*.switch8.eth[55].bitrate = 130Mbps
*.switch8.eth[56].bitrate = 170Mbps
*.switch8.eth[57].bitrate = 170Mbps
*.switch8.eth[58].bitrate = 210Mbps
*.host9.eth[0].bitrate = 100Mbps
*.switch9.eth[0].bitrate = 100Mbps
*.switch9.eth[1].bitrate = 180Mbps
*.switch9.eth[2].bitrate = 170Mbps
*.switch9.eth[3].bitrate = 200Mbps
*.switch9.eth[4].bitrate = 210Mbps
*.switch9.eth[5].bitrate = 120Mbps
*.switch9.eth[6].bitrate = 170Mbps
*.switch9.eth[7].bitrate = 210Mbps
*.switch9.eth[8].bitrate = 240Mbps
*.switch9.eth[9].bitrate = 170Mbps
*.switch9.eth[10].bitrate = 210Mbps
*.switch9.eth[11].bitrate = 200Mbps
*.switch9.eth[12].bitrate = 150Mbps
*.switch9.eth[13].bitrate = 160Mbps
*.switch9.eth[14].bitrate = 240Mbps
*.switch9.eth[15].bitrate = 180Mbps
*.switch9.eth[16].bitrate = 160Mbps
*.switch9.eth[17].bitrate = 170Mbps
*.switch9.eth[18].bitrate = 210Mbps
*.switch9.eth[19].bitrate = 150Mbps
*.switch9.eth[20].bitrate = 240Mbps
*.switch9.eth[21].bitrate = 140Mbps
*.switch9.eth[22].bitrate = 200Mbps
*.switch9.eth[23].bitrate = 190Mbps
*.switch9.eth[24].bitrate = 160Mbps
*.switch9.eth[25].bitrate = 200Mbps
*.switch9.eth[26].bitrate = 180Mbps
*.switch9.eth[27].bitrate = 210Mbps
*.switch9.eth[28].bitrate = 170Mbps
*.switch9.eth[29].bitrate = 190Mbps
*.switch9.eth[30].bitrate = 160Mbps
*.switch9.eth[31].bitrate = 160Mbps
*.switch9.eth[32].bitrate = 120Mbps
*.switch9.eth[33].bitrate = 150Mbps
*.switch9.eth[34].bitrate = 170Mbps
*.switch9.eth[35].bitrate = 180Mbps
*.switch9.eth[36].bitrate = 210Mbps
*.switch9.eth[37].bitrate = 150Mbps
*.switch9.eth[38].bitrate = 130Mbps
*.switch9.eth[39].bitrate = 200Mbps
*.switch9.eth[40].bitrate = 150Mbps
*.switch9.eth[41].bitrate = 200Mbps
*.switch9.eth[42].bitrate = 130Mbps
*.switch9.eth[43].bitrate = 170Mbps
*.switch9.eth[44].bitrate = 230Mbps
*.switch9.eth[45].bitrate = 140Mbps
*.host10.eth[0].bitrate = 100Mbps
*.switch10.eth[0].bitrate = 100Mbps
*.switch10.eth[1].bitrate = 180Mbps
*.switch10.eth[2].bitrate = 210Mbps
*.switch10.eth[3].bitrate = 210Mbps
*.switch10.eth[4].bitrate = 190Mbps
*.switch10.eth[5].bitrate = 170Mbps
*.switch10.eth[6].bitrate = 150Mbps
*.switch10.eth[7].bitrate = 220Mbps
*.switch10.eth[8].bitrate = 230Mbps
*.switch10.eth[9].bitrate = 210Mbps
*.switch10.eth[10].bitrate = 180Mbps
*.switch10.eth[11].bitrate = 160Mbps
*.switch10.eth[12].bitrate = 200Mbps
*.switch10.eth[13].bitrate = 180Mbps
*.switch10.eth[14].bitrate = 180Mbps
*.switch10.eth[15].bitrate = 220Mbps
*.switch10.eth[16].bitrate = 180Mbps
*.switch10.eth[17].bitrate = 180Mbps
*.switch10.eth[18].bitrate = 210Mbps
*.switch10.eth[19].bitrate = 230Mbps
*.switch10.eth[20].bitrate = 240Mbps
*.switch10.eth[21].bitrate = 190Mbps
*.switch10.eth[22].bitrate = 220Mbps
*.switch10.eth[23].bitrate = 180Mbps
*.switch10.eth[24].bitrate = 140Mbps
*.switch10.eth[25].bitrate = 160Mbps
*.switch10.eth[26].bitrate = 240Mbps
*.switch10.eth[27].bitrate = 130Mbps
*.switch10.eth[28].bitrate = 180Mbps
*.switch10.eth[29].bitrate = 240Mbps
*.switch10.eth[30].bitrate = 130Mbps
*.switch10.eth[31].bitrate = 150Mbps
*.switch10.eth[32].bitrate = 120Mbps
*.switch10.eth[33].bitrate = 170Mbps
*.switch10.eth[34].bitrate = 180Mbps
*.switch10.eth[35].bitrate = 190Mbps
*.host11.eth[0].bitrate = 100Mbps
*.switch11.eth[0].bitrate = 100Mbps
*.switch11.eth[1].bitrate = 210Mbps
*.switch11.eth[2].bitrate = 150Mbps
*.switch11.eth[3].bitrate = 190Mbps
*.switch11.eth[4].bitrate = 180Mbps
*.switch11.eth[5].bitrate = 150Mbps
*.switch11.eth[6].bitrate = 150Mbps
*.switch11.eth[7].bitrate = 210Mbps
*.switch11.eth[8].bitrate = 220Mbps
*.switch11.eth[9].bitrate = 220Mbps
*.switch11.eth[10].bitrate = 120Mbps
*.switch11.eth[11].bitrate = 130Mbps
*.switch11.eth[12].bitrate = 220Mbps
*.switch11.eth[13].bitrate = 150Mbps
*.switch11.eth[14].bitrate = 170Mbps
*.switch11.eth[15].bitrate = 190Mbps
*.switch11.eth[16].bitrate = 170Mbps
*.switch11.eth[17].bitrate = 170Mbps
*.switch11.eth[18].bitrate = 230Mbps
*.switch11.eth[19].bitrate = 120Mbps
*.switch11.eth[20].bitrate = 230Mbps
*.switch11.eth[21].bitrate = 240Mbps
*.switch11.eth[22].bitrate = 190Mbps
*.switch11.eth[23].bitrate = 130Mbps
*.switch11.eth[24].bitrate = 220Mbps
*.switch11.eth[25].bitrate = 120Mbps
*.switch11.eth[26].bitrate = 170Mbps
*.switch11.eth[27].bitrate = 160Mbps
*.switch11.eth[28].bitrate = 220Mbps
*.switch11.eth[29].bitrate = 180Mbps
*.switch11.eth[30].bitrate = 170Mbps
*.switch11.eth[31].bitrate = 200Mbps
*.switch11.eth[32].bitrate = 150Mbps
*.switch11.eth[33].bitrate = 140Mbps
*.switch11.eth[34].bitrate = 240Mbps
*.switch11.eth[35].bitrate = 210Mbps
*.switch11.eth[36].bitrate = 120Mbps
*.switch11.eth[37].bitrate = 230Mbps
*.switch11.eth[38].bitrate = 210Mbps
*.switch11.eth[39].bitrate = 160Mbps
*.switch11.eth[40].bitrate = 130Mbps
*.switch11.eth[41].bitrate = 210Mbps
*.switch11.eth[42].bitrate = 180Mbps
*.switch11.eth[43].bitrate = 220Mbps
*.switch11.eth[44].bitrate = 170Mbps
*.switch11.eth[45].bitrate = 180Mbps
*.switch11.eth[46].bitrate = 190Mbps
*.switch11.eth[47].bitrate = 130Mbps
*.switch11.eth[48].bitrate = 240Mbps
*.switch11.eth[49].bitrate = 120Mbps
*.switch11.eth[50].bitrate = 200Mbps
*.switch11.eth[51].bitrate = 210Mbps
*.switch11.eth[52].bitrate = 170Mbps
*.switch11.eth[53].bitrate = 190Mbps
*.switch11.eth[54].bitrate = 200Mbps
*.switch11.eth[55].bitrate = 240Mbps
*.host12.eth[0].bitrate = 100Mbps
*.switch12.eth[0].bitrate = 100Mbps
*.switch12.eth[1].bitrate = 120Mbps
*.switch12.eth[2].bitrate = 140Mbps
*.switch12.eth[3].bitrate = 220Mbps
*.switch12.eth[4].bitrate = 240Mbps
*.switch12.eth[5].bitrate = 130Mbps
*.switch12.eth[6].bitrate = 240Mbps
*.switch12.eth[7].bitrate = 190Mbps
*.switch12.eth[8].bitrate = 210Mbps
*.switch12.eth[9].bitrate = 130Mbps
*.switch12.eth[10].bitrate = 170Mbps
*.switch12.eth[11].bitrate = 220Mbps
*.switch12.eth[12].bitrate = 150Mbps
*.switch12.eth[13].bitrate = 180Mbps
*.switch12.eth[14].bitrate = 210Mbps
*.switch12.eth[15].bitrate = 130Mbps
*.switch12.eth[16].bitrate = 120Mbps
*.switch12.eth[17].bitrate = 160Mbps
*.switch12.eth[18].bitrate = 140Mbps
*.switch12.eth[19].bitrate = 140Mbps
*.switch12.eth[20].bitrate = 130Mbps
*.switch12.eth[21].bitrate = 140Mbps
*.switch12.eth[22].bitrate = 210Mbps
*.switch12.eth[23].bitrate = 240Mbps
*.switch12.eth[24].bitrate = 130Mbps
*.switch12.eth[25].bitrate = 170Mbps
*.switch12.eth[26].bitrate = 200Mbps
*.switch12.eth[27].bitrate = 230Mbps
*.switch12.eth[28].bitrate = 230Mbps
*.switch12.eth[29].bitrate = 200Mbps
*.switch12.eth[30].bitrate = 240Mbps
*.switch12.eth[31].bitrate = 160Mbps
*.switch12.eth[32].bitrate = 200Mbps
*.switch12.eth[33].bitrate = 210Mbps
*.switch12.eth[34].bitrate = 120Mbps
*.switch12.eth[35].bitrate = 140Mbps
*.switch12.eth[36].bitrate = 180Mbps
*.switch12.eth[37].bitrate = 170Mbps
*.switch12.eth[38].bitrate = 210Mbps
*.switch12.eth[39].bitrate = 160Mbps
*.switch12.eth[40].bitrate = 180Mbps
*.switch12.eth[41].bitrate = 220Mbps
*.switch12.eth[42].bitrate = 200Mbps
*.switch12.eth[43].bitrate = 160Mbps
*.switch12.eth[44].bitrate = 230Mbps
*.switch12.eth[45].bitrate = 220Mbps
*.switch12.eth[46].bitrate = 240Mbps
*.switch12.eth[47].bitrate = 240Mbps
*.switch12.eth[48].bitrate = 180Mbps
*.switch12.eth[49].bitrate = 240Mbps
*.switch12.eth[50].bitrate = 220Mbps
*.switch12.eth[51].bitrate = 140Mbps
*.switch12.eth[52].bitrate = 120Mbps
*.switch12.eth[53].bitrate = 170Mbps
*.switch12.eth[54].bitrate = 150Mbps
*.host13.eth[0].bitrate = 100Mbps
*.switch13.eth[0].bitrate = 100Mbps
*.switch13.eth[1].bitrate = 220Mbps
*.switch13.eth[2].bitrate = 130Mbps
*.switch13.eth[3].bitrate = 140Mbps
*.switch13.eth[4].bitrate = 160Mbps
*.switch13.eth[5].bitrate = 180Mbps
*.switch13.eth[6].bitrate = 170Mbps
*.switch13.eth[7].bitrate = 170Mbps
*.switch13.eth[8].bitrate = 170Mbps
*.switch13.eth[9].bitrate = 130Mbps
*.switch13.eth[10].bitrate = 180Mbps
*.switch13.eth[11].bitrate = 170Mbps
*.switch13.eth[12].bitrate = 130Mbps
*.switch13.eth[13].bitrate = 180Mbps
*.switch13.eth[14].bitrate = 170Mbps
*.switch13.eth[15].bitrate = 210Mbps
*.switch13.eth[16].bitrate = 180Mbps
*.switch13.eth[17].bitrate = 190Mbps
*.switch13.eth[18].bitrate = 160Mbps
*.switch13.eth[19].bitrate = 210Mbps
*.switch13.eth[20].bitrate = 140Mbps
*.switch13.eth[21].bitrate = 170Mbps
*.switch13.eth[22].bitrate = 150Mbps
*.switch13.eth[23].bitrate = 150Mbps
*.switch13.eth[24].bitrate = 230Mbps
*.switch13.eth[25].bitrate = 180Mbps
*.switch13.eth[26].bitrate = 160Mbps
*.switch13.eth[27].bitrate = 180Mbps
*.switch13.eth[28].bitrate = 180Mbps
*.switch13.eth[29].bitrate = 130Mbps
*.switch13.eth[30].bitrate = 140Mbps
*.switch13.eth[31].bitrate = 180Mbps
*.switch13.eth[32].bitrate = 190Mbps
*.switch13.eth[33].bitrate = 190Mbps
*.switch13.eth[34].bitrate = 180Mbps
*.switch13.eth[35].bitrate = 140Mbps
*.switch13.eth[36].bitrate = 130Mbps
*.switch13.eth[37].bitrate = 150Mbps
*.switch13.eth[38].bitrate = 190Mbps
*.switch13.eth[39].bitrate = 150Mbps
*.switch13.eth[40].bitrate = 130Mbps
*.switch13.eth[41].bitrate = 230Mbps
*.switch13.eth[42].bitrate = 190Mbps
*.switch13.eth[43].bitrate = 230Mbps
*.switch13.eth[44].bitrate = 240Mbps
*.switch13.eth[45].bitrate = 130Mbps
*.switch13.eth[46].bitrate = 130Mbps
*.switch13.eth[47].bitrate = 120Mbps
*.host14.eth[0].bitrate = 100Mbps
*.switch14.eth[0].bitrate = 100Mbps
*.switch14.eth[1].bitrate = 170Mbps
*.switch14.eth[2].bitrate = 240Mbps
*.switch14.eth[3].bitrate = 200Mbps
*.switch14.eth[4].bitrate = 160Mbps
*.switch14.eth[5].bitrate = 210Mbps
*.switch14.eth[6].bitrate = 170Mbps
*.switch14.eth[7].bitrate = 140Mbps
*.switch14.eth[8].bitrate = 200Mbps
*.switch14.eth[9].bitrate = 240Mbps
*.switch14.eth[10].bitrate = 240Mbps
*.switch14.eth[11].bitrate = 130Mbps
*.switch14.eth[12].bitrate = 150Mbps
*.switch14.eth[13].bitrate = 210Mbps
*.switch14.eth[14].bitrate = 230Mbps
*.switch14.eth[15].bitrate = 230Mbps
*.switch14.eth[16].bitrate = 160Mbps
*.switch14.eth[17].bitrate = 180Mbps
*.switch14.eth[18].bitrate = 130Mbps
*.switch14.eth[19].bitrate = 180Mbps
*.switch14.eth[20].bitrate = 130Mbps
*.switch14.eth[21].bitrate = 180Mbps
*.switch14.eth[22].bitrate = 210Mbps
*.switch14.eth[23].bitrate = 150Mbps
*.switch14.eth[24].bitrate = 160Mbps
*.switch14.eth[25].bitrate = 140Mbps
*.switch14.eth[26].bitrate = 130Mbps
*.switch14.eth[27].bitrate = 120Mbps
*.switch14.eth[28].bitrate = 210Mbps
*.switch14.eth[29].bitrate = 120Mbps
*.switch14.eth[30].bitrate = 180Mbps
*.switch14.eth[31].bitrate = 160Mbps
*.switch14.eth[32].bitrate = 200Mbps
*.switch14.eth[33].bitrate = 150Mbps
*.switch14.eth[34].bitrate = 190Mbps
*.switch14.eth[35].bitrate = 120Mbps
*.switch14.eth[36].bitrate = 230Mbps
*.switch14.eth[37].bitrate = 200Mbps
*.switch14.eth[38].bitrate = 230Mbps
*.switch14.eth[39].bitrate = 120Mbps
*.switch14.eth[40].bitrate = 140Mbps
*.switch14.eth[41].bitrate = 140Mbps
*.switch14.eth[42].bitrate = 120Mbps
*.switch14.eth[43].bitrate = 170Mbps
*.switch14.eth[44].bitrate = 130Mbps
*.switch14.eth[45].bitrate = 120Mbps
*.switch14.eth[46].bitrate = 170Mbps
*.switch14.eth[47].bitrate = 240Mbps
*.switch14.eth[48].bitrate = 210Mbps
*.switch14.eth[49].bitrate = 180Mbps
*.switch14.eth[50].bitrate = 180Mbps
*.switch14.eth[51].bitrate = 160Mbps
*.switch14.eth[52].bitrate = 120Mbps
*.switch14.eth[53].bitrate = 140Mbps
*.switch14.eth[54].bitrate = 210Mbps
*.switch14.eth[55].bitrate = 240Mbps
*.switch14.eth[56].bitrate = 150Mbps
*.switch14.eth[57].bitrate = 220Mbps
*.switch14.eth[58].bitrate = 170Mbps
*.switch14.eth[59].bitrate = 170Mbps
*.switch14.eth[60].bitrate = 160Mbps
*.switch14.eth[61].bitrate = 230Mbps
*.switch14.eth[62].bitrate = 210Mbps
*.switch14.eth[63].bitrate = 240Mbps
*.switch14.eth[64].bitrate = 230Mbps
*.switch14.eth[65].bitrate = 240Mbps
*.switch14.eth[66].bitrate = 190Mbps
*.switch14.eth[67].bitrate = 220Mbps
*.switch14.eth[68].bitrate = 120Mbps
*.switch14.eth[69].bitrate = 180Mbps
*.host15.eth[0].bitrate = 100Mbps
*.switch15.eth[0].bitrate = 100Mbps
*.switch15.eth[1].bitrate = 180Mbps
*.switch15.eth[2].bitrate = 200Mbps
*.switch15.eth[3].bitrate = 120Mbps
*.switch15.eth[4].bitrate = 160Mbps
*.switch15.eth[5].bitrate = 160Mbps
*.switch15.eth[6].bitrate = 130Mbps
*.switch15.eth[7].bitrate = 190Mbps
*.switch15.eth[8].bitrate = 230Mbps
*.switch15.eth[9].bitrate = 200Mbps