[General]
network = TSN_multipath
sim-time-limit = 10ms
*.macForwardingTableConfigurator.typename = ""
*.*.hasStreamRedundancy = true
*.*.bridging.streamRelay.typename = "StreamRelayLayer"
*.*.bridging.streamCoder.typename = "StreamCoderLayer"
*.streamRedundancyConfigurator.typename = "StreamRedundancyConfigurator"
*.host0.eth[0].bitrate = 1000Mbps
*.switch0.eth[0].bitrate = 1000Mbps
*.switch0.eth[1].bitrate = 1300Mbps
*.switch0.eth[2].bitrate = 1300Mbps
*.switch0.eth[3].bitrate = 1600Mbps
*.switch0.eth[4].bitrate = 1800Mbps
*.switch0.eth[5].bitrate = 1800Mbps
*.switch0.eth[6].bitrate = 1900Mbps
*.switch0.eth[7].bitrate = 1800Mbps
*.host1.eth[0].bitrate = 1000Mbps
*.switch1.eth[0].bitrate = 1000Mbps
*.switch1.eth[1].bitrate = 1900Mbps
*.switch1.eth[2].bitrate = 1700Mbps
*.switch1.eth[3].bitrate = 1900Mbps
*.switch1.eth[4].bitrate = 1400Mbps
*.switch1.eth[5].bitrate = 1400Mbps
*.host2.eth[0].bitrate = 1000Mbps
*.switch2.eth[0].bitrate = 1000Mbps
*.switch2.eth[1].bitrate = 1300Mbps
*.switch2.eth[2].bitrate = 1800Mbps
*.switch2.eth[3].bitrate = 2400Mbps
*.switch2.eth[4].bitrate = 1500Mbps
*.switch2.eth[5].bitrate = 2000Mbps
*.switch2.eth[6].bitrate = 2000Mbps
*.switch2.eth[7].bitrate = 1600Mbps
*.switch2.eth[8].bitrate = 2100Mbps
*.switch2.eth[9].bitrate = 1300Mbps
*.switch2.eth[10].bitrate = 1800Mbps
*.host3.eth[0].bitrate = 1000Mbps
*.switch3.eth[0].bitrate = 1000Mbps
*.switch3.eth[1].bitrate = 2400Mbps
*.switch3.eth[2].bitrate = 1600Mbps
*.switch3.eth[3].bitrate = 1400Mbps
*.switch3.eth[4].bitrate = 1700Mbps
*.switch3.eth[5].bitrate = 1200Mbps
*.switch3.eth[6].bitrate = 2200Mbps
*.switch3.eth[7].bitrate = 2300Mbps
*.switch3.eth[8].bitrate = 2100Mbps
*.switch3.eth[9].bitrate = 1600Mbps
*.switch3.eth[10].bitrate = 2000Mbps
*.host4.eth[0].bitrate = 1000Mbps
*.switch4.eth[0].bitrate = 1000Mbps
*.switch4.eth[1].bitrate = 1300Mbps
*.switch4.eth[2].bitrate = 1500Mbps
*.switch4.eth[3].bitrate = 1400Mbps
*.switch4.eth[4].bitrate = 1800Mbps
*.switch4.eth[5].bitrate = 2100Mbps
*.switch4.eth[6].bitrate = 1500Mbps
*.switch4.eth[7].bitrate = 1700Mbps
*.switch4.eth[8].bitrate = 2000Mbps
*.switch4.eth[9].bitrate = 1500Mbps
*.host5.eth[0].bitrate = 1000Mbps
*.switch5.eth[0].bitrate = 1000Mbps
*.switch5.eth[1].bitrate = 1700Mbps
*.switch5.eth[2].bitrate = 1500Mbps
*.switch5.eth[3].bitrate = 1900Mbps
*.switch5.eth[4].bitrate = 2100Mbps
*.switch5.eth[5].bitrate = 1600Mbps
*.switch5.eth[6].bitrate = 1600Mbps
*.switch5.eth[7].bitrate = 2000Mbps
*.switch5.eth[8].bitrate = 1500Mbps
*.switch5.eth[9].bitrate = 2100Mbps
*.switch5.eth[10].bitrate = 1500Mbps
*.host6.eth[0].bitrate = 1000Mbps
*.switch6.eth[0].bitrate = 1000Mbps
*.switch6.eth[1].bitrate = 2000Mbps
*.switch6.eth[2].bitrate = 1200Mbps
*.switch6.eth[3].bitrate = 1600Mbps
*.switch6.eth[4].bitrate = 1900Mbps
*.host7.eth[0].bitrate = 1000Mbps
*.switch7.eth[0].bitrate = 1000Mbps
*.switch7.eth[1].bitrate = 1900Mbps
*.switch7.eth[2].bitrate = 2200Mbps
*.switch7.eth[3].bitrate = 1700Mbps
*.switch7.eth[4].bitrate = 2000Mbps
*.switch7.eth[5].bitrate = 1300Mbps
*.switch7.eth[6].bitrate = 1500Mbps
*.switch7.eth[7].bitrate = 2100Mbps
*.switch7.eth[8].bitrate = 2200Mbps
*.switch7.eth[9].bitrate = 2400Mbps
*.switch7.eth[10].bitrate = 1300Mbps
*.host8.eth[0].bitrate = 1000Mbps
*.switch8.eth[0].bitrate = 1000Mbps
*.switch8.eth[1].bitrate = 2000Mbps
*.switch8.eth[2].bitrate = 2300Mbps
*.switch8.eth[3].bitrate = 2000Mbps
*.switch8.eth[4].bitrate = 2200Mbps
*.switch8.eth[5].bitrate = 1800Mbps
*.switch8.eth[6].bitrate = 1400Mbps
*.switch8.eth[7].bitrate = 1800Mbps
*.switch8.eth[8].bitrate = 2000Mbps
*.switch8.eth[9].bitrate = 1500Mbps
*.switch8.eth[10].bitrate = 1300Mbps
*.switch8.eth[11].bitrate = 1900Mbps
*.host9.eth[0].bitrate = 1000Mbps
*.switch9.eth[0].bitrate = 1000Mbps
*.switch9.eth[1].bitrate = 1600Mbps
*.switch9.eth[2].bitrate = 1700Mbps
*.switch9.eth[3].bitrate = 1500Mbps
*.switch9.eth[4].bitrate = 2400Mbps
*.switch9.eth[5].bitrate = 1900Mbps
*.switch9.eth[6].bitrate = 1400Mbps
*.host0.numApps = 9
*.host0.app[0].typename = "UdpSourceApp"
*.host0.app[0].io.destAddress = "host8"
*.host0.app[0].source.packetNameFormat = "%M-%m-%c"
*.host0.app[0].source.displayStringTextFormat = "sent %p pk (%l)"
*.host0.app[0].source.packetLength = 14B
*.host0.app[0].source.productionInterval = 1ms
*.host0.app[0].display-name = "type1_0"
*.host0.app[0].io.destPort = 1000
*.host0.app[1].typename = "UdpSourceApp"
*.host0.app[1].io.destAddress = "host1"
*.host0.app[1].source.packetNameFormat = "%M-%m-%c"
*.host0.app[1].source.displayStringTextFormat = "sent %p pk (%l)"
*.host0.app[1].source.packetLength = 23B
*.host0.app[1].source.productionInterval = 1ms
*.host0.app[1].display-name = "type1_1"
*.host0.app[1].io.destPort = 1000
*.host0.app[2].typename = "UdpSinkApp"
*.host0.app[2].io.localPort = 1000
*.host0.app[3].typename = "UdpBasicApp"
*.host0.app[3].destAddresses = "host7"
*.host0.app[3].source.packetNameFormat = "%M-%m-%c"
*.host0.app[3].source.displayStringTextFormat = "sent %p pk (%l)"
*.host0.app[3].messageLength = 15B
*.host0.app[3].sendInterval = 1ms
*.host0.app[3].startTime = 100us
*.host0.app[3].stopTime = 1100us
*.host0.app[3].display-name = "type2_3"
*.host0.app[3].destPort = 1001
*.host0.app[4].typename = "UdpBasicApp"
*.host0.app[4].destAddresses = "host7"
*.host0.app[4].source.packetNameFormat = "%M-%m-%c"
*.host0.app[4].source.displayStringTextFormat = "sent %p pk (%l)"
*.host0.app[4].messageLength = 15B
*.host0.app[4].sendInterval = 1ms
*.host0.app[4].startTime = 3800us
*.host0.app[4].stopTime = 4800us
*.host0.app[4].display-name = "type2_3"
*.host0.app[4].destPort = 1001
*.host0.app[5].typename = "UdpBasicApp"
*.host0.app[5].destAddresses = "host7"
*.host0.app[5].source.packetNameFormat = "%M-%m-%c"
*.host0.app[5].source.displayStringTextFormat = "sent %p pk (%l)"
*.host0.app[5].messageLength = 15B
*.host0.app[5].sendInterval = 1ms
*.host0.app[5].startTime = 7600us
*.host0.app[5].stopTime = 9300us
*.host0.app[5].display-name = "type2_3"
*.host0.app[5].destPort = 1001
*.host0.app[6].typename = "UdpBasicApp"
*.host0.app[6].destAddresses = "host7"
*.host0.app[6].source.packetNameFormat = "%M-%m-%c"
*.host0.app[6].source.displayStringTextFormat = "sent %p pk (%l)"
*.host0.app[6].messageLength = 15B
*.host0.app[6].sendInterval = 1ms
*.host0.app[6].startTime = 9800us
*.host0.app[6].stopTime = 10000us
*.host0.app[6].display-name = "type2_3"
*.host0.app[6].destPort = 1001
*.host0.app[7].typename = "UdpSinkApp"
*.host0.app[7].io.localPort = 1001
*.host0.app[8].typename = "UdpSinkApp"
*.host0.app[8].io.localPort = 1002
*.host1.numApps = 11
*.host1.app[0].typename = "UdpSinkApp"
*.host1.app[0].io.localPort = 1000
*.host1.app[1].typename = "UdpSourceApp"
*.host1.app[1].io.destAddress = "host7"
*.host1.app[1].source.packetNameFormat = "%M-%m-%c"
*.host1.app[1].source.displayStringTextFormat = "sent %p pk (%l)"
*.host1.app[1].source.packetLength = 19B
*.host1.app[1].source.productionInterval = 1ms
*.host1.app[1].display-name = "type1_2"
*.host1.app[1].io.destPort = 1000
*.host1.app[2].typename = "UdpBasicApp"
*.host1.app[2].destAddresses = "host8"
*.host1.app[2].source.packetNameFormat = "%M-%m-%c"
*.host1.app[2].source.displayStringTextFormat = "sent %p pk (%l)"
*.host1.app[2].messageLength = 23B
*.host1.app[2].sendInterval = 1ms
*.host1.app[2].startTime = 100us
*.host1.app[2].stopTime = 1700us
*.host1.app[2].display-name = "type2_0"
*.host1.app[2].destPort = 1001
*.host1.app[3].typename = "UdpBasicApp"
*.host1.app[3].destAddresses = "host8"
*.host1.app[3].source.packetNameFormat = "%M-%m-%c"
*.host1.app[3].source.displayStringTextFormat = "sent %p pk (%l)"
*.host1.app[3].messageLength = 23B
*.host1.app[3].sendInterval = 1ms
*.host1.app[3].startTime = 1800us
*.host1.app[3].stopTime = 2700us
*.host1.app[3].display-name = "type2_0"
*.host1.app[3].destPort = 1001
*.host1.app[4].typename = "UdpBasicApp"
*.host1.app[4].destAddresses = "host8"
*.host1.app[4].source.packetNameFormat = "%M-%m-%c"
*.host1.app[4].source.displayStringTextFormat = "sent %p pk (%l)"
*.host1.app[4].messageLength = 23B
*.host1.app[4].sendInterval = 1ms
*.host1.app[4].startTime = 3200us
*.host1.app[4].stopTime = 4200us
*.host1.app[4].display-name = "type2_0"
*.host1.app[4].destPort = 1001
*.host1.app[5].typename = "UdpBasicApp"
*.host1.app[5].destAddresses = "host8"
*.host1.app[5].source.packetNameFormat = "%M-%m-%c"
*.host1.app[5].source.displayStringTextFormat = "sent %p pk (%l)"
*.host1.app[5].messageLength = 23B
*.host1.app[5].sendInterval = 1ms
*.host1.app[5].startTime = 4500us
*.host1.app[5].stopTime = 6600us
*.host1.app[5].display-name = "type2_0"
*.host1.app[5].destPort = 1001
*.host1.app[6].typename = "UdpBasicApp"
*.host1.app[6].destAddresses = "host8"
*.host1.app[6].source.packetNameFormat = "%M-%m-%c"
*.host1.app[6].source.displayStringTextFormat = "sent %p pk (%l)"
*.host1.app[6].messageLength = 23B
*.host1.app[6].sendInterval = 1ms
*.host1.app[6].startTime = 6700us
*.host1.app[6].stopTime = 8700us
*.host1.app[6].display-name = "type2_0"
*.host1.app[6].destPort = 1001
*.host1.app[7].typename = "UdpBasicApp"
*.host1.app[7].destAddresses = "host0"
*.host1.app[7].source.packetNameFormat = "%M-%m-%c"
*.host1.app[7].source.displayStringTextFormat = "sent %p pk (%l)"
*.host1.app[7].messageLength = 14B
*.host1.app[7].sendInterval = 1ms
*.host1.app[7].startTime = 2000us
*.host1.app[7].stopTime = 3200us
*.host1.app[7].display-name = "type2_1"
*.host1.app[7].destPort = 1000
*.host1.app[8].typename = "UdpBasicApp"
*.host1.app[8].destAddresses = "host0"
*.host1.app[8].source.packetNameFormat = "%M-%m-%c"
*.host1.app[8].source.displayStringTextFormat = "sent %p pk (%l)"
*.host1.app[8].messageLength = 14B
*.host1.app[8].sendInterval = 1ms
*.host1.app[8].startTime = 4000us
*.host1.app[8].stopTime = 4300us
*.host1.app[8].display-name = "type2_1"
*.host1.app[8].destPort = 1000
*.host1.app[9].typename = "UdpBasicApp"
*.host1.app[9].destAddresses = "host0"
*.host1.app[9].source.packetNameFormat = "%M-%m-%c"
*.host1.app[9].source.displayStringTextFormat = "sent %p pk (%l)"
*.host1.app[9].messageLength = 14B
*.host1.app[9].sendInterval = 1ms
*.host1.app[9].startTime = 4500us
*.host1.app[9].stopTime = 5700us
*.host1.app[9].display-name = "type2_1"
*.host1.app[9].destPort = 1000
*.host1.app[10].typename = "UdpBasicApp"
*.host1.app[10].destAddresses = "host0"
*.host1.app[10].source.packetNameFormat = "%M-%m-%c"
*.host1.app[10].source.displayStringTextFormat = "sent %p pk (%l)"
*.host1.app[10].messageLength = 14B
*.host1.app[10].sendInterval = 1ms
*.host1.app[10].startTime = 7400us
*.host1.app[10].stopTime = 9400us
*.host1.app[10].display-name = "type2_1"
*.host1.app[10].destPort = 1000
*.host2.numApps = 5
*.host2.app[0].typename = "UdpBasicApp"
*.host2.app[0].destAddresses = "host0"
*.host2.app[0].source.packetNameFormat = "%M-%m-%c"
*.host2.app[0].source.displayStringTextFormat = "sent %p pk (%l)"
*.host2.app[0].messageLength = 16B
*.host2.app[0].sendInterval = 1ms
*.host2.app[0].startTime = 1300us
*.host2.app[0].stopTime = 2000us
*.host2.app[0].display-name = "type2_7"
*.host2.app[0].destPort = 1002
*.host2.app[1].typename = "UdpBasicApp"
*.host2.app[1].destAddresses = "host0"
*.host2.app[1].source.packetNameFormat = "%M-%m-%c"
*.host2.app[1].source.displayStringTextFormat = "sent %p pk (%l)"
*.host2.app[1].messageLength = 16B
*.host2.app[1].sendInterval = 1ms
*.host2.app[1].startTime = 2500us
*.host2.app[1].stopTime = 3400us
*.host2.app[1].display-name = "type2_7"
*.host2.app[1].destPort = 1002
*.host2.app[2].typename = "UdpBasicApp"
*.host2.app[2].destAddresses = "host0"
*.host2.app[2].source.packetNameFormat = "%M-%m-%c"
*.host2.app[2].source.displayStringTextFormat = "sent %p pk (%l)"
*.host2.app[2].messageLength = 16B
*.host2.app[2].sendInterval = 1ms
*.host2.app[2].startTime = 5700us
*.host2.app[2].stopTime = 6100us
*.host2.app[2].display-name = "type2_7"
*.host2.app[2].destPort = 1002
*.host2.app[3].typename = "UdpBasicApp"
*.host2.app[3].destAddresses = "host0"
*.host2.app[3].source.packetNameFormat = "%M-%m-%c"
*.host2.app[3].source.displayStringTextFormat = "sent %p pk (%l)"
*.host2.app[3].messageLength = 16B
*.host2.app[3].sendInterval = 1ms
*.host2.app[3].startTime = 8200us
*.host2.app[3].stopTime = 9500us
*.host2.app[3].display-name = "type2_7"
*.host2.app[3].destPort = 1002
*.host2.app[4].typename = "UdpBasicApp"
*.host2.app[4].destAddresses = "host0"
*.host2.app[4].source.packetNameFormat = "%M-%m-%c"
*.host2.app[4].source.displayStringTextFormat = "sent %p pk (%l)"
*.host2.app[4].messageLength = 16B
*.host2.app[4].sendInterval = 1ms
*.host2.app[4].startTime = 9600us
*.host2.app[4].stopTime = 10000us
*.host2.app[4].display-name = "type2_7"
*.host2.app[4].destPort = 1002
*.host3.numApps = 12
*.host3.app[0].typename = "UdpBasicApp"
*.host3.app[0].destAddresses = "host5"
*.host3.app[0].source.packetNameFormat = "%M-%m-%c"
*.host3.app[0].source.displayStringTextFormat = "sent %p pk (%l)"
*.host3.app[0].messageLength = 24B
*.host3.app[0].sendInterval = 1ms
*.host3.app[0].startTime = 300us
*.host3.app[0].stopTime = 2700us
*.host3.app[0].display-name = "type2_2"
*.host3.app[0].destPort = 1000
*.host3.app[1].typename = "UdpBasicApp"
*.host3.app[1].destAddresses = "host5"
*.host3.app[1].source.packetNameFormat = "%M-%m-%c"
*.host3.app[1].source.displayStringTextFormat = "sent %p pk (%l)"
*.host3.app[1].messageLength = 24B
*.host3.app[1].sendInterval = 1ms
*.host3.app[1].startTime = 4400us
*.host3.app[1].stopTime = 5000us
*.host3.app[1].display-name = "type2_2"
*.host3.app[1].destPort = 1000
*.host3.app[2].typename = "UdpBasicApp"
*.host3.app[2].destAddresses = "host5"
*.host3.app[2].source.packetNameFormat = "%M-%m-%c"
*.host3.app[2].source.displayStringTextFormat = "sent %p pk (%l)"
*.host3.app[2].messageLength = 24B
*.host3.app[2].sendInterval = 1ms
*.host3.app[2].startTime = 5500us
*.host3.app[2].stopTime = 5800us
*.host3.app[2].display-name = "type2_2"
*.host3.app[2].destPort = 1000
*.host3.app[3].typename = "UdpBasicApp"
*.host3.app[3].destAddresses = "host5"
*.host3.app[3].source.packetNameFormat = "%M-%m-%c"
*.host3.app[3].source.displayStringTextFormat = "sent %p pk (%l)"
*.host3.app[3].messageLength = 24B
*.host3.app[3].sendInterval = 1ms
*.host3.app[3].startTime = 5900us
*.host3.app[3].stopTime = 6800us
*.host3.app[3].display-name = "type2_2"
*.host3.app[3].destPort = 1000
*.host3.app[4].typename = "UdpBasicApp"
*.host3.app[4].destAddresses = "host5"
*.host3.app[4].source.packetNameFormat = "%M-%m-%c"
*.host3.app[4].source.displayStringTextFormat = "sent %p pk (%l)"
*.host3.app[4].messageLength = 24B
*.host3.app[4].sendInterval = 1ms
*.host3.app[4].startTime = 7600us
*.host3.app[4].stopTime = 8100us
*.host3.app[4].display-name = "type2_2"
*.host3.app[4].destPort = 1000
*.host3.app[5].typename = "UdpBasicApp"
*.host3.app[5].destAddresses = "host5"
*.host3.app[5].source.packetNameFormat = "%M-%m-%c"
*.host3.app[5].source.displayStringTextFormat = "sent %p pk (%l)"
*.host3.app[5].messageLength = 24B
*.host3.app[5].sendInterval = 1ms
*.host3.app[5].startTime = 9600us
*.host3.app[5].stopTime = 9700us
*.host3.app[5].display-name = "type2_2"
*.host3.app[5].destPort = 1000
*.host3.app[6].typename = "UdpSinkApp"
*.host3.app[6].io.localPort = 1000
*.host3.app[7].typename = "UdpBasicApp"
*.host3.app[7].destAddresses = "host8"
*.host3.app[7].source.packetNameFormat = "%M-%m-%c"
*.host3.app[7].source.displayStringTextFormat = "sent %p pk (%l)"
*.host3.app[7].messageLength = 14B
*.host3.app[7].sendInterval = 1ms
*.host3.app[7].startTime = 1300us
*.host3.app[7].stopTime = 1400us
*.host3.app[7].display-name = "type2_8"
*.host3.app[7].destPort = 1002
*.host3.app[8].typename = "UdpBasicApp"
*.host3.app[8].destAddresses = "host8"
*.host3.app[8].source.packetNameFormat = "%M-%m-%c"
*.host3.app[8].source.displayStringTextFormat = "sent %p pk (%l)"
*.host3.app[8].messageLength = 14B
*.host3.app[8].sendInterval = 1ms
*.host3.app[8].startTime = 2400us
*.host3.app[8].stopTime = 3600us
*.host3.app[8].display-name = "type2_8"
*.host3.app[8].destPort = 1002
*.host3.app[9].typename = "UdpBasicApp"
*.host3.app[9].destAddresses = "host8"
*.host3.app[9].source.packetNameFormat = "%M-%m-%c"
*.host3.app[9].source.displayStringTextFormat = "sent %p pk (%l)"
*.host3.app[9].messageLength = 14B
*.host3.app[9].sendInterval = 1ms
*.host3.app[9].startTime = 5300us
*.host3.app[9].stopTime = 6600us
*.host3.app[9].display-name = "type2_8"
*.host3.app[9].destPort = 1002
*.host3.app[10].typename = "UdpBasicApp"
*.host3.app[10].destAddresses = "host8"
*.host3.app[10].source.packetNameFormat = "%M-%m-%c"
*.host3.app[10].source.displayStringTextFormat = "sent %p pk (%l)"
*.host3.app[10].messageLength = 14B
*.host3.app[10].sendInterval = 1ms
*.host3.app[10].startTime = 7000us
*.host3.app[10].stopTime = 7200us
*.host3.app[10].display-name = "type2_8"
*.host3.app[10].destPort = 1002
*.host3.app[11].typename = "UdpBasicApp"
*.host3.app[11].destAddresses = "host8"
*.host3.app[11].source.packetNameFormat = "%M-%m-%c"
*.host3.app[11].source.displayStringTextFormat = "sent %p pk (%l)"
*.host3.app[11].messageLength = 14B
*.host3.app[11].sendInterval = 1ms
*.host3.app[11].startTime = 7600us
*.host3.app[11].stopTime = 8600us
*.host3.app[11].display-name = "type2_8"
*.host3.app[11].destPort = 1002
*.host4.numApps = 1
*.host4.app[0].typename = "UdpSinkApp"
*.host4.app[0].io.localPort = 1000
*.host5.numApps = 4
*.host5.app[0].typename = "UdpSinkApp"
*.host5.app[0].io.localPort = 1000
*.host5.app[1].typename = "UdpBasicApp"
*.host5.app[1].destAddresses = "host4"
*.host5.app[1].source.packetNameFormat = "%M-%m-%c"
*.host5.app[1].source.displayStringTextFormat = "sent %p pk (%l)"
*.host5.app[1].messageLength = 15B
*.host5.app[1].sendInterval = 1ms
*.host5.app[1].startTime = 1300us
*.host5.app[1].stopTime = 1700us
*.host5.app[1].display-name = "type2_4"
*.host5.app[1].destPort = 1000
*.host5.app[2].typename = "UdpBasicApp"
*.host5.app[2].destAddresses = "host4"
*.host5.app[2].source.packetNameFormat = "%M-%m-%c"
*.host5.app[2].source.displayStringTextFormat = "sent %p pk (%l)"
*.host5.app[2].messageLength = 15B
*.host5.app[2].sendInterval = 1ms
*.host5.app[2].startTime = 3400us
*.host5.app[2].stopTime = 4500us
*.host5.app[2].display-name = "type2_4"
*.host5.app[2].destPort = 1000
*.host5.app[3].typename = "UdpBasicApp"
*.host5.app[3].destAddresses = "host4"
*.host5.app[3].source.packetNameFormat = "%M-%m-%c"
*.host5.app[3].source.displayStringTextFormat = "sent %p pk (%l)"
*.host5.app[3].messageLength = 15B
*.host5.app[3].sendInterval = 1ms
*.host5.app[3].startTime = 7500us
*.host5.app[3].stopTime = 8400us
*.host5.app[3].display-name = "type2_4"
*.host5.app[3].destPort = 1000
*.host6.numApps = 0
*.host7.numApps = 2
*.host7.app[0].typename = "UdpSinkApp"
*.host7.app[0].io.localPort = 1000
*.host7.app[1].typename = "UdpSinkApp"
*.host7.app[1].io.localPort = 1001
*.host8.numApps = 7
*.host8.app[0].typename = "UdpSinkApp"
*.host8.app[0].io.localPort = 1000
*.host8.app[1].typename = "UdpSinkApp"
*.host8.app[1].io.localPort = 1001
*.host8.app[2].typename = "UdpBasicApp"
*.host8.app[2].destAddresses = "host0"
*.host8.app[2].source.packetNameFormat = "%M-%m-%c"
*.host8.app[2].source.displayStringTextFormat = "sent %p pk (%l)"
*.host8.app[2].messageLength = 21B
*.host8.app[2].sendInterval = 1ms
*.host8.app[2].startTime = 1000us
*.host8.app[2].stopTime = 3700us
*.host8.app[2].display-name = "type2_6"
*.host8.app[2].destPort = 1001
*.host8.app[3].typename = "UdpBasicApp"
*.host8.app[3].destAddresses = "host0"
*.host8.app[3].source.packetNameFormat = "%M-%m-%c"
*.host8.app[3].source.displayStringTextFormat = "sent %p pk (%l)"
*.host8.app[3].messageLength = 21B
*.host8.app[3].sendInterval = 1ms
*.host8.app[3].startTime = 4000us
*.host8.app[3].stopTime = 4600us
*.host8.app[3].display-name = "type2_6"
*.host8.app[3].destPort = 1001
*.host8.app[4].typename = "UdpBasicApp"
*.host8.app[4].destAddresses = "host0"
*.host8.app[4].source.packetNameFormat = "%M-%m-%c"
*.host8.app[4].source.displayStringTextFormat = "sent %p pk (%l)"
*.host8.app[4].messageLength = 21B
*.host8.app[4].sendInterval = 1ms
*.host8.app[4].startTime = 5400us
*.host8.app[4].stopTime = 5900us
*.host8.app[4].display-name = "type2_6"
*.host8.app[4].destPort = 1001
*.host8.app[5].typename = "UdpBasicApp"
*.host8.app[5].destAddresses = "host0"
*.host8.app[5].source.packetNameFormat = "%M-%m-%c"
*.host8.app[5].source.displayStringTextFormat = "sent %p pk (%l)"
*.host8.app[5].messageLength = 21B
*.host8.app[5].sendInterval = 1ms
*.host8.app[5].startTime = 6300us
*.host8.app[5].stopTime = 8300us
*.host8.app[5].display-name = "type2_6"
*.host8.app[5].destPort = 1001
*.host8.app[6].typename = "UdpSinkApp"
*.host8.app[6].io.localPort = 1002
*.host9.numApps = 5
*.host9.app[0].typename = "UdpBasicApp"
*.host9.app[0].destAddresses = "host3"
*.host9.app[0].source.packetNameFormat = "%M-%m-%c"
*.host9.app[0].source.displayStringTextFormat = "sent %p pk (%l)"
*.host9.app[0].messageLength = 22B
*.host9.app[0].sendInterval = 1ms
*.host9.app[0].startTime = 1500us
*.host9.app[0].stopTime = 1800us
*.host9.app[0].display-name = "type2_5"
*.host9.app[0].destPort = 1000
*.host9.app[1].typename = "UdpBasicApp"
*.host9.app[1].destAddresses = "host3"
*.host9.app[1].source.packetNameFormat = "%M-%m-%c"
*.host9.app[1].source.displayStringTextFormat = "sent %p pk (%l)"
*.host9.app[1].messageLength = 22B
*.host9.app[1].sendInterval = 1ms
*.host9.app[1].startTime = 2100us
*.host9.app[1].stopTime = 3700us
*.host9.app[1].display-name = "type2_5"
*.host9.app[1].destPort = 1000
*.host9.app[2].typename = "UdpBasicApp"
*.host9.app[2].destAddresses = "host3"
*.host9.app[2].source.packetNameFormat = "%M-%m-%c"
*.host9.app[2].source.displayStringTextFormat = "sent %p pk (%l)"
*.host9.app[2].messageLength = 22B
*.host9.app[2].sendInterval = 1ms
*.host9.app[2].startTime = 4100us
*.host9.app[2].stopTime = 4800us
*.host9.app[2].display-name = "type2_5"
*.host9.app[2].destPort = 1000
*.host9.app[3].typename = "UdpBasicApp"
*.host9.app[3].destAddresses = "host3"
*.host9.app[3].source.packetNameFormat = "%M-%m-%c"
*.host9.app[3].source.displayStringTextFormat = "sent %p pk (%l)"
*.host9.app[3].messageLength = 22B
*.host9.app[3].sendInterval = 1ms
*.host9.app[3].startTime = 4900us
*.host9.app[3].stopTime = 6200us
*.host9.app[3].display-name = "type2_5"
*.host9.app[3].destPort = 1000
*.host9.app[4].typename = "UdpBasicApp"
*.host9.app[4].destAddresses = "host3"
*.host9.app[4].source.packetNameFormat = "%M-%m-%c"
*.host9.app[4].source.displayStringTextFormat = "sent %p pk (%l)"
*.host9.app[4].messageLength = 22B
*.host9.app[4].sendInterval = 1ms
*.host9.app[4].startTime = 6300us
*.host9.app[4].stopTime = 7000us
*.host9.app[4].display-name = "type2_5"
*.host9.app[4].destPort = 1000
*.streamRedundancyConfigurator.configuration = [
	{
		name: "S1-0",
		packetFilter: "*-type1_0-*",
		source: "host0",
		destination: "host8",
		trees: [[["host0", "switch0", "switch2", "switch4", "switch8", "host8"]]]
	},
	{
		name: "S1-1",
		packetFilter: "*-type1_1-*",
		source: "host0",
		destination: "host1",
		trees: [[["host0",
	 "switch0",
	 "switch4",
	 "switch5",
	 "switch7",
	 "switch9",
	 "switch1",
	 "host1"]]]
	},
	{
		name: "S1-2",
		packetFilter: "*-type1_2-*",
		source: "host1",
		destination: "host7",
		trees: [[["host1", "switch1", "switch7", "host7"]]]
	},
	{
		name: "S2-0",
		packetFilter: "*-type2_0-*",
		source: "host1",
		destination: "host8",
		trees: [[["host1", "switch1", "switch7", "switch8", "host8"]]]
	},
	{
		name: "S2-1",
		packetFilter: "*-type2_1-*",
		source: "host1",
		destination: "host0",
		trees: [[["host1", "switch1", "switch7", "switch8", "switch0", "host0"]]]
	},
	{
		name: "S2-2",
		packetFilter: "*-type2_2-*",
		source: "host3",
		destination: "host5",
		trees: [[["host3", "switch3", "switch4", "switch5", "host5"]]]
	},
	{
		name: "S2-3",
		packetFilter: "*-type2_3-*",
		source: "host0",
		destination: "host7",
		trees: [[["host0",
	 "switch0",
	 "switch4",
	 "switch3",
	 "switch2",
	 "switch6",
	 "switch1",
	 "switch7",
	 "host7"]]]
	},
	{
		name: "S2-4",
		packetFilter: "*-type2_4-*",
		source: "host5",
		destination: "host4",
		trees: [[["host5",
	 "switch5",
	 "switch9",
	 "switch1",
	 "switch7",
	 "switch2",
	 "switch3",
	 "switch4",
	 "host4"]]]
	},
	{
		name: "S2-5",
		packetFilter: "*-type2_5-*",
		source: "host9",
		destination: "host3",
		trees: [[["host9", "switch9", "switch1", "switch7", "switch2", "switch3", "host3"]]]
	},
	{
		name: "S2-6",
		packetFilter: "*-type2_6-*",
		source: "host8",
		destination: "host0",
		trees: [[["host8", "switch8", "switch0", "host0"]]]
	},
	{
		name: "S2-7",
		packetFilter: "*-type2_7-*",
		source: "host2",
		destination: "host0",
		trees: [[["host2",
	 "switch2",
	 "switch6",
	 "switch1",
	 "switch7",
	 "switch8",
	 "switch0",
	 "host0"]]]
	},
	{
		name: "S2-8",
		packetFilter: "*-type2_8-*",
		source: "host3",
		destination: "host8",
		trees: [[["host3",
	 "switch3",
	 "switch2",
	 "switch6",
	 "switch1",
	 "switch7",
	 "switch8",
	 "host8"]]]
	}]
	

