[General]
network = TSN_multipath
sim-time-limit = 10ms
*.macForwardingTableConfigurator.typename = ""
*.*.hasStreamRedundancy = true
*.*.bridging.streamRelay.typename = "StreamRelayLayer"
*.*.bridging.streamCoder.typename = "StreamCoderLayer"
*.streamRedundancyConfigurator.typename = "StreamRedundancyConfigurator"
*.host0.eth[0].bitrate = 1000Mbps
*.switch0.eth[0].bitrate = 1000Mbps
*.switch0.eth[1].bitrate = 1500Mbps
*.switch0.eth[2].bitrate = 1200Mbps
*.switch0.eth[3].bitrate = 1500Mbps
*.switch0.eth[4].bitrate = 1900Mbps
*.switch0.eth[5].bitrate = 2200Mbps
*.switch0.eth[6].bitrate = 2300Mbps
*.switch0.eth[7].bitrate = 2100Mbps
*.switch0.eth[8].bitrate = 1200Mbps
*.switch0.eth[9].bitrate = 1300Mbps
*.switch0.eth[10].bitrate = 1600Mbps
*.host1.eth[0].bitrate = 1000Mbps
*.switch1.eth[0].bitrate = 1000Mbps
*.switch1.eth[1].bitrate = 1500Mbps
*.switch1.eth[2].bitrate = 2000Mbps
*.switch1.eth[3].bitrate = 2400Mbps
*.switch1.eth[4].bitrate = 2100Mbps
*.switch1.eth[5].bitrate = 1300Mbps
*.switch1.eth[6].bitrate = 2300Mbps
*.switch1.eth[7].bitrate = 2300Mbps
*.switch1.eth[8].bitrate = 1300Mbps
*.host2.eth[0].bitrate = 1000Mbps
*.switch2.eth[0].bitrate = 1000Mbps
*.switch2.eth[1].bitrate = 1200Mbps
*.switch2.eth[2].bitrate = 2000Mbps
*.switch2.eth[3].bitrate = 2100Mbps
*.switch2.eth[4].bitrate = 2100Mbps
*.switch2.eth[5].bitrate = 1300Mbps
*.host3.eth[0].bitrate = 1000Mbps
*.switch3.eth[0].bitrate = 1000Mbps
*.switch3.eth[1].bitrate = 1500Mbps
*.switch3.eth[2].bitrate = 2100Mbps
*.switch3.eth[3].bitrate = 1300Mbps
*.switch3.eth[4].bitrate = 2400Mbps
*.switch3.eth[5].bitrate = 1600Mbps
*.switch3.eth[6].bitrate = 1700Mbps
*.switch3.eth[7].bitrate = 1400Mbps
*.switch3.eth[8].bitrate = 1900Mbps
*.switch3.eth[9].bitrate = 1200Mbps
*.switch3.eth[10].bitrate = 1700Mbps
*.switch3.eth[11].bitrate = 2400Mbps
*.host4.eth[0].bitrate = 1000Mbps
*.switch4.eth[0].bitrate = 1000Mbps
*.switch4.eth[1].bitrate = 1900Mbps
*.switch4.eth[2].bitrate = 1200Mbps
*.switch4.eth[3].bitrate = 2100Mbps
*.switch4.eth[4].bitrate = 2400Mbps
*.host5.eth[0].bitrate = 1000Mbps
*.switch5.eth[0].bitrate = 1000Mbps
*.switch5.eth[1].bitrate = 2400Mbps
*.switch5.eth[2].bitrate = 2100Mbps
*.switch5.eth[3].bitrate = 1200Mbps
*.switch5.eth[4].bitrate = 1700Mbps
*.switch5.eth[5].bitrate = 2200Mbps
*.host6.eth[0].bitrate = 1000Mbps
*.switch6.eth[0].bitrate = 1000Mbps
*.switch6.eth[1].bitrate = 1900Mbps
*.switch6.eth[2].bitrate = 1600Mbps
*.switch6.eth[3].bitrate = 1200Mbps
*.switch6.eth[4].bitrate = 1200Mbps
*.switch6.eth[5].bitrate = 2300Mbps
*.switch6.eth[6].bitrate = 2100Mbps
*.switch6.eth[7].bitrate = 1200Mbps
*.switch6.eth[8].bitrate = 1200Mbps
*.switch6.eth[9].bitrate = 1800Mbps
*.switch6.eth[10].bitrate = 2200Mbps
*.switch6.eth[11].bitrate = 1700Mbps
*.switch6.eth[12].bitrate = 2100Mbps
*.host7.eth[0].bitrate = 1000Mbps
*.switch7.eth[0].bitrate = 1000Mbps
*.switch7.eth[1].bitrate = 1700Mbps
*.switch7.eth[2].bitrate = 1800Mbps
*.switch7.eth[3].bitrate = 1700Mbps
*.switch7.eth[4].bitrate = 1900Mbps
*.switch7.eth[5].bitrate = 2400Mbps
*.switch7.eth[6].bitrate = 1700Mbps
*.host8.eth[0].bitrate = 1000Mbps
*.switch8.eth[0].bitrate = 1000Mbps
*.switch8.eth[1].bitrate = 2200Mbps
*.switch8.eth[2].bitrate = 2400Mbps
*.switch8.eth[3].bitrate = 1400Mbps
*.switch8.eth[4].bitrate = 2200Mbps
*.switch8.eth[5].bitrate = 1900Mbps
*.switch8.eth[6].bitrate = 1300Mbps
*.switch8.eth[7].bitrate = 2300Mbps
*.switch8.eth[8].bitrate = 1700Mbps
*.switch8.eth[9].bitrate = 1700Mbps
*.switch8.eth[10].bitrate = 1700Mbps
*.switch8.eth[11].bitrate = 1500Mbps
*.host9.eth[0].bitrate = 1000Mbps
*.switch9.eth[0].bitrate = 1000Mbps
*.switch9.eth[1].bitrate = 2300Mbps
*.switch9.eth[2].bitrate = 2400Mbps
*.switch9.eth[3].bitrate = 1600Mbps
*.switch9.eth[4].bitrate = 1300Mbps
*.switch9.eth[5].bitrate = 1300Mbps
*.switch9.eth[6].bitrate = 2400Mbps
*.switch9.eth[7].bitrate = 2400Mbps
*.switch9.eth[8].bitrate = 2200Mbps
*.switch9.eth[9].bitrate = 2100Mbps
*.switch9.eth[10].bitrate = 1500Mbps
*.host0.numApps = 7
*.host0.app[0].typename = "UdpSourceApp"
*.host0.app[0].io.destAddress = "host1"
*.host0.app[0].source.packetNameFormat = "%M-%m-%c"
*.host0.app[0].source.displayStringTextFormat = "sent %p pk (%l)"
*.host0.app[0].source.packetLength = 16B
*.host0.app[0].source.productionInterval = 1ms
*.host0.app[0].display-name = "type1_1"
*.host0.app[0].io.destPort = 1001
*.host0.app[1].typename = "UdpSourceApp"
*.host0.app[1].io.destAddress = "host2"
*.host0.app[1].source.packetNameFormat = "%M-%m-%c"
*.host0.app[1].source.displayStringTextFormat = "sent %p pk (%l)"
*.host0.app[1].source.packetLength = 14B
*.host0.app[1].source.productionInterval = 1ms
*.host0.app[1].display-name = "type1_2"
*.host0.app[1].io.destPort = 1000
*.host0.app[2].typename = "UdpSinkApp"
*.host0.app[2].io.localPort = 1000
*.host0.app[3].typename = "UdpBasicApp"
*.host0.app[3].destAddresses = "host5"
*.host0.app[3].source.packetNameFormat = "%M-%m-%c"
*.host0.app[3].source.displayStringTextFormat = "sent %p pk (%l)"
*.host0.app[3].messageLength = 23B
*.host0.app[3].sendInterval = 1ms
*.host0.app[3].startTime = 1700us
*.host0.app[3].stopTime = 1900us
*.host0.app[3].display-name = "type2_6"
*.host0.app[3].destPort = 1000
*.host0.app[4].typename = "UdpBasicApp"
*.host0.app[4].destAddresses = "host5"
*.host0.app[4].source.packetNameFormat = "%M-%m-%c"
*.host0.app[4].source.displayStringTextFormat = "sent %p pk (%l)"
*.host0.app[4].messageLength = 23B
*.host0.app[4].sendInterval = 1ms
*.host0.app[4].startTime = 3300us
*.host0.app[4].stopTime = 5000us
*.host0.app[4].display-name = "type2_6"
*.host0.app[4].destPort = 1000
*.host0.app[5].typename = "UdpBasicApp"
*.host0.app[5].destAddresses = "host5"
*.host0.app[5].source.packetNameFormat = "%M-%m-%c"
*.host0.app[5].source.displayStringTextFormat = "sent %p pk (%l)"
*.host0.app[5].messageLength = 23B
*.host0.app[5].sendInterval = 1ms
*.host0.app[5].startTime = 5400us
*.host0.app[5].stopTime = 5700us
*.host0.app[5].display-name = "type2_6"
*.host0.app[5].destPort = 1000
*.host0.app[6].typename = "UdpBasicApp"
*.host0.app[6].destAddresses = "host5"
*.host0.app[6].source.packetNameFormat = "%M-%m-%c"
*.host0.app[6].source.displayStringTextFormat = "sent %p pk (%l)"
*.host0.app[6].messageLength = 23B
*.host0.app[6].sendInterval = 1ms
*.host0.app[6].startTime = 6400us
*.host0.app[6].stopTime = 9800us
*.host0.app[6].display-name = "type2_6"
*.host0.app[6].destPort = 1000
*.host1.numApps = 15
*.host1.app[0].typename = "UdpSinkApp"
*.host1.app[0].io.localPort = 1000
*.host1.app[1].typename = "UdpSinkApp"
*.host1.app[1].io.localPort = 1001
*.host1.app[2].typename = "UdpBasicApp"
*.host1.app[2].destAddresses = "host0"
*.host1.app[2].source.packetNameFormat = "%M-%m-%c"
*.host1.app[2].source.displayStringTextFormat = "sent %p pk (%l)"
*.host1.app[2].messageLength = 17B
*.host1.app[2].sendInterval = 1ms
*.host1.app[2].startTime = 1300us
*.host1.app[2].stopTime = 3300us
*.host1.app[2].display-name = "type2_1"
*.host1.app[2].destPort = 1000
*.host1.app[3].typename = "UdpBasicApp"
*.host1.app[3].destAddresses = "host0"
*.host1.app[3].source.packetNameFormat = "%M-%m-%c"
*.host1.app[3].source.displayStringTextFormat = "sent %p pk (%l)"
*.host1.app[3].messageLength = 17B
*.host1.app[3].sendInterval = 1ms
*.host1.app[3].startTime = 4900us
*.host1.app[3].stopTime = 5500us
*.host1.app[3].display-name = "type2_1"
*.host1.app[3].destPort = 1000
*.host1.app[4].typename = "UdpBasicApp"
*.host1.app[4].destAddresses = "host0"
*.host1.app[4].source.packetNameFormat = "%M-%m-%c"
*.host1.app[4].source.displayStringTextFormat = "sent %p pk (%l)"
*.host1.app[4].messageLength = 17B
*.host1.app[4].sendInterval = 1ms
*.host1.app[4].startTime = 6000us
*.host1.app[4].stopTime = 6100us
*.host1.app[4].display-name = "type2_1"
*.host1.app[4].destPort = 1000
*.host1.app[5].typename = "UdpBasicApp"
*.host1.app[5].destAddresses = "host0"
*.host1.app[5].source.packetNameFormat = "%M-%m-%c"
*.host1.app[5].source.displayStringTextFormat = "sent %p pk (%l)"
*.host1.app[5].messageLength = 17B
*.host1.app[5].sendInterval = 1ms
*.host1.app[5].startTime = 6200us
*.host1.app[5].stopTime = 7100us
*.host1.app[5].display-name = "type2_1"
*.host1.app[5].destPort = 1000
*.host1.app[6].typename = "UdpBasicApp"
*.host1.app[6].destAddresses = "host0"
*.host1.app[6].source.packetNameFormat = "%M-%m-%c"
*.host1.app[6].source.displayStringTextFormat = "sent %p pk (%l)"
*.host1.app[6].messageLength = 17B
*.host1.app[6].sendInterval = 1ms
*.host1.app[6].startTime = 7400us
*.host1.app[6].stopTime = 8200us
*.host1.app[6].display-name = "type2_1"
*.host1.app[6].destPort = 1000
*.host1.app[7].typename = "UdpBasicApp"
*.host1.app[7].destAddresses = "host0"
*.host1.app[7].source.packetNameFormat = "%M-%m-%c"
*.host1.app[7].source.displayStringTextFormat = "sent %p pk (%l)"
*.host1.app[7].messageLength = 17B
*.host1.app[7].sendInterval = 1ms
*.host1.app[7].startTime = 9500us
*.host1.app[7].stopTime = 9800us
*.host1.app[7].display-name = "type2_1"
*.host1.app[7].destPort = 1000
*.host1.app[8].typename = "UdpBasicApp"
*.host1.app[8].destAddresses = "host9"
*.host1.app[8].source.packetNameFormat = "%M-%m-%c"
*.host1.app[8].source.displayStringTextFormat = "sent %p pk (%l)"
*.host1.app[8].messageLength = 15B
*.host1.app[8].sendInterval = 1ms
*.host1.app[8].startTime = 1500us
*.host1.app[8].stopTime = 2900us
*.host1.app[8].display-name = "type2_4"
*.host1.app[8].destPort = 1000
*.host1.app[9].typename = "UdpBasicApp"
*.host1.app[9].destAddresses = "host9"
*.host1.app[9].source.packetNameFormat = "%M-%m-%c"
*.host1.app[9].source.displayStringTextFormat = "sent %p pk (%l)"
*.host1.app[9].messageLength = 15B
*.host1.app[9].sendInterval = 1ms
*.host1.app[9].startTime = 3000us
*.host1.app[9].stopTime = 3200us
*.host1.app[9].display-name = "type2_4"
*.host1.app[9].destPort = 1000
*.host1.app[10].typename = "UdpBasicApp"
*.host1.app[10].destAddresses = "host9"
*.host1.app[10].source.packetNameFormat = "%M-%m-%c"
*.host1.app[10].source.displayStringTextFormat = "sent %p pk (%l)"
*.host1.app[10].messageLength = 15B
*.host1.app[10].sendInterval = 1ms
*.host1.app[10].startTime = 4900us
*.host1.app[10].stopTime = 6000us
*.host1.app[10].display-name = "type2_4"
*.host1.app[10].destPort = 1000
*.host1.app[11].typename = "UdpBasicApp"
*.host1.app[11].destAddresses = "host9"
*.host1.app[11].source.packetNameFormat = "%M-%m-%c"
*.host1.app[11].source.displayStringTextFormat = "sent %p pk (%l)"
*.host1.app[11].messageLength = 15B
*.host1.app[11].sendInterval = 1ms
*.host1.app[11].startTime = 6100us
*.host1.app[11].stopTime = 7500us
*.host1.app[11].display-name = "type2_4"
*.host1.app[11].destPort = 1000
*.host1.app[12].typename = "UdpBasicApp"
*.host1.app[12].destAddresses = "host9"
*.host1.app[12].source.packetNameFormat = "%M-%m-%c"
*.host1.app[12].source.displayStringTextFormat = "sent %p pk (%l)"
*.host1.app[12].messageLength = 15B
*.host1.app[12].sendInterval = 1ms
*.host1.app[12].startTime = 7900us
*.host1.app[12].stopTime = 8500us
*.host1.app[12].display-name = "type2_4"
*.host1.app[12].destPort = 1000
*.host1.app[13].typename = "UdpBasicApp"
*.host1.app[13].destAddresses = "host9"
*.host1.app[13].source.packetNameFormat = "%M-%m-%c"
*.host1.app[13].source.displayStringTextFormat = "sent %p pk (%l)"
*.host1.app[13].messageLength = 15B
*.host1.app[13].sendInterval = 1ms
*.host1.app[13].startTime = 8800us
*.host1.app[13].stopTime = 10000us
*.host1.app[13].display-name = "type2_4"
*.host1.app[13].destPort = 1000
*.host1.app[14].typename = "UdpSinkApp"
*.host1.app[14].io.localPort = 1002
*.host2.numApps = 9
*.host2.app[0].typename = "UdpSinkApp"
*.host2.app[0].io.localPort = 1000
*.host2.app[1].typename = "UdpBasicApp"
*.host2.app[1].destAddresses = "host7"
*.host2.app[1].source.packetNameFormat = "%M-%m-%c"
*.host2.app[1].source.displayStringTextFormat = "sent %p pk (%l)"
*.host2.app[1].messageLength = 23B
*.host2.app[1].sendInterval = 1ms
*.host2.app[1].startTime = 1300us
*.host2.app[1].stopTime = 1500us
*.host2.app[1].display-name = "type2_0"
*.host2.app[1].destPort = 1000
*.host2.app[2].typename = "UdpBasicApp"
*.host2.app[2].destAddresses = "host7"
*.host2.app[2].source.packetNameFormat = "%M-%m-%c"
*.host2.app[2].source.displayStringTextFormat = "sent %p pk (%l)"
*.host2.app[2].messageLength = 23B
*.host2.app[2].sendInterval = 1ms
*.host2.app[2].startTime = 1700us
*.host2.app[2].stopTime = 1800us
*.host2.app[2].display-name = "type2_0"
*.host2.app[2].destPort = 1000
*.host2.app[3].typename = "UdpBasicApp"
*.host2.app[3].destAddresses = "host7"
*.host2.app[3].source.packetNameFormat = "%M-%m-%c"
*.host2.app[3].source.displayStringTextFormat = "sent %p pk (%l)"
*.host2.app[3].messageLength = 23B
*.host2.app[3].sendInterval = 1ms
*.host2.app[3].startTime = 2300us
*.host2.app[3].stopTime = 3100us
*.host2.app[3].display-name = "type2_0"
*.host2.app[3].destPort = 1000
*.host2.app[4].typename = "UdpBasicApp"
*.host2.app[4].destAddresses = "host7"
*.host2.app[4].source.packetNameFormat = "%M-%m-%c"
*.host2.app[4].source.displayStringTextFormat = "sent %p pk (%l)"
*.host2.app[4].messageLength = 23B
*.host2.app[4].sendInterval = 1ms
*.host2.app[4].startTime = 5600us
*.host2.app[4].stopTime = 7000us
*.host2.app[4].display-name = "type2_0"
*.host2.app[4].destPort = 1000
*.host2.app[5].typename = "UdpBasicApp"
*.host2.app[5].destAddresses = "host7"
*.host2.app[5].source.packetNameFormat = "%M-%m-%c"
*.host2.app[5].source.displayStringTextFormat = "sent %p pk (%l)"
*.host2.app[5].messageLength = 23B
*.host2.app[5].sendInterval = 1ms
*.host2.app[5].startTime = 8000us
*.host2.app[5].stopTime = 8700us
*.host2.app[5].display-name = "type2_0"
*.host2.app[5].destPort = 1000
*.host2.app[6].typename = "UdpBasicApp"
*.host2.app[6].destAddresses = "host7"
*.host2.app[6].source.packetNameFormat = "%M-%m-%c"
*.host2.app[6].source.displayStringTextFormat = "sent %p pk (%l)"
*.host2.app[6].messageLength = 23B
*.host2.app[6].sendInterval = 1ms
*.host2.app[6].startTime = 9100us
*.host2.app[6].stopTime = 9300us
*.host2.app[6].display-name = "type2_0"
*.host2.app[6].destPort = 1000
*.host2.app[7].typename = "UdpBasicApp"
*.host2.app[7].destAddresses = "host7"
*.host2.app[7].source.packetNameFormat = "%M-%m-%c"
*.host2.app[7].source.displayStringTextFormat = "sent %p pk (%l)"
*.host2.app[7].messageLength = 23B
*.host2.app[7].sendInterval = 1ms
*.host2.app[7].startTime = 9800us
*.host2.app[7].stopTime = 10000us
*.host2.app[7].display-name = "type2_0"
*.host2.app[7].destPort = 1000
*.host2.app[8].typename = "UdpSinkApp"
*.host2.app[8].io.localPort = 1001
*.host3.numApps = 13
*.host3.app[0].typename = "UdpBasicApp"
*.host3.app[0].destAddresses = "host8"
*.host3.app[0].source.packetNameFormat = "%M-%m-%c"
*.host3.app[0].source.displayStringTextFormat = "sent %p pk (%l)"
*.host3.app[0].messageLength = 14B
*.host3.app[0].sendInterval = 1ms
*.host3.app[0].startTime = 100us
*.host3.app[0].stopTime = 200us
*.host3.app[0].display-name = "type2_3"
*.host3.app[0].destPort = 1000
*.host3.app[1].typename = "UdpBasicApp"
*.host3.app[1].destAddresses = "host8"
*.host3.app[1].source.packetNameFormat = "%M-%m-%c"
*.host3.app[1].source.displayStringTextFormat = "sent %p pk (%l)"
*.host3.app[1].messageLength = 14B
*.host3.app[1].sendInterval = 1ms
*.host3.app[1].startTime = 300us
*.host3.app[1].stopTime = 900us
*.host3.app[1].display-name = "type2_3"
*.host3.app[1].destPort = 1000
*.host3.app[2].typename = "UdpBasicApp"
*.host3.app[2].destAddresses = "host8"
*.host3.app[2].source.packetNameFormat = "%M-%m-%c"
*.host3.app[2].source.displayStringTextFormat = "sent %p pk (%l)"
*.host3.app[2].messageLength = 14B
*.host3.app[2].sendInterval = 1ms
*.host3.app[2].startTime = 1300us
*.host3.app[2].stopTime = 2500us
*.host3.app[2].display-name = "type2_3"
*.host3.app[2].destPort = 1000
*.host3.app[3].typename = "UdpBasicApp"
*.host3.app[3].destAddresses = "host8"
*.host3.app[3].source.packetNameFormat = "%M-%m-%c"
*.host3.app[3].source.displayStringTextFormat = "sent %p pk (%l)"
*.host3.app[3].messageLength = 14B
*.host3.app[3].sendInterval = 1ms
*.host3.app[3].startTime = 2700us
*.host3.app[3].stopTime = 3200us
*.host3.app[3].display-name = "type2_3"
*.host3.app[3].destPort = 1000
*.host3.app[4].typename = "UdpBasicApp"
*.host3.app[4].destAddresses = "host8"
*.host3.app[4].source.packetNameFormat = "%M-%m-%c"
*.host3.app[4].source.displayStringTextFormat = "sent %p pk (%l)"
*.host3.app[4].messageLength = 14B
*.host3.app[4].sendInterval = 1ms
*.host3.app[4].startTime = 3300us
*.host3.app[4].stopTime = 6100us
*.host3.app[4].display-name = "type2_3"
*.host3.app[4].destPort = 1000
*.host3.app[5].typename = "UdpBasicApp"
*.host3.app[5].destAddresses = "host8"
*.host3.app[5].source.packetNameFormat = "%M-%m-%c"
*.host3.app[5].source.displayStringTextFormat = "sent %p pk (%l)"
*.host3.app[5].messageLength = 14B
*.host3.app[5].sendInterval = 1ms
*.host3.app[5].startTime = 6900us
*.host3.app[5].stopTime = 7200us
*.host3.app[5].display-name = "type2_3"
*.host3.app[5].destPort = 1000
*.host3.app[6].typename = "UdpBasicApp"
*.host3.app[6].destAddresses = "host8"
*.host3.app[6].source.packetNameFormat = "%M-%m-%c"
*.host3.app[6].source.displayStringTextFormat = "sent %p pk (%l)"
*.host3.app[6].messageLength = 14B
*.host3.app[6].sendInterval = 1ms
*.host3.app[6].startTime = 7300us
*.host3.app[6].stopTime = 8200us
*.host3.app[6].display-name = "type2_3"
*.host3.app[6].destPort = 1000
*.host3.app[7].typename = "UdpBasicApp"
*.host3.app[7].destAddresses = "host8"
*.host3.app[7].source.packetNameFormat = "%M-%m-%c"
*.host3.app[7].source.displayStringTextFormat = "sent %p pk (%l)"
*.host3.app[7].messageLength = 14B
*.host3.app[7].sendInterval = 1ms
*.host3.app[7].startTime = 9000us
*.host3.app[7].stopTime = 10000us
*.host3.app[7].display-name = "type2_3"
*.host3.app[7].destPort = 1000
*.host3.app[8].typename = "UdpBasicApp"
*.host3.app[8].destAddresses = "host7"
*.host3.app[8].source.packetNameFormat = "%M-%m-%c"
*.host3.app[8].source.displayStringTextFormat = "sent %p pk (%l)"
*.host3.app[8].messageLength = 21B
*.host3.app[8].sendInterval = 1ms
*.host3.app[8].startTime = 1600us
*.host3.app[8].stopTime = 2000us
*.host3.app[8].display-name = "type2_8"
*.host3.app[8].destPort = 1001
*.host3.app[9].typename = "UdpBasicApp"
*.host3.app[9].destAddresses = "host7"
*.host3.app[9].source.packetNameFormat = "%M-%m-%c"
*.host3.app[9].source.displayStringTextFormat = "sent %p pk (%l)"
*.host3.app[9].messageLength = 21B
*.host3.app[9].sendInterval = 1ms
*.host3.app[9].startTime = 2600us
*.host3.app[9].stopTime = 4000us
*.host3.app[9].display-name = "type2_8"
*.host3.app[9].destPort = 1001
*.host3.app[10].typename = "UdpBasicApp"
*.host3.app[10].destAddresses = "host7"
*.host3.app[10].source.packetNameFormat = "%M-%m-%c"
*.host3.app[10].source.displayStringTextFormat = "sent %p pk (%l)"
*.host3.app[10].messageLength = 21B
*.host3.app[10].sendInterval = 1ms
*.host3.app[10].startTime = 4900us
*.host3.app[10].stopTime = 6100us
*.host3.app[10].display-name = "type2_8"
*.host3.app[10].destPort = 1001
*.host3.app[11].typename = "UdpBasicApp"
*.host3.app[11].destAddresses = "host7"
*.host3.app[11].source.packetNameFormat = "%M-%m-%c"
*.host3.app[11].source.displayStringTextFormat = "sent %p pk (%l)"
*.host3.app[11].messageLength = 21B
*.host3.app[11].sendInterval = 1ms
*.host3.app[11].startTime = 8100us
*.host3.app[11].stopTime = 8300us
*.host3.app[11].display-name = "type2_8"
*.host3.app[11].destPort = 1001
*.host3.app[12].typename = "UdpBasicApp"
*.host3.app[12].destAddresses = "host7"
*.host3.app[12].source.packetNameFormat = "%M-%m-%c"
*.host3.app[12].source.displayStringTextFormat = "sent %p pk (%l)"
*.host3.app[12].messageLength = 21B
*.host3.app[12].sendInterval = 1ms
*.host3.app[12].startTime = 8800us
*.host3.app[12].stopTime = 9400us
*.host3.app[12].display-name = "type2_8"
*.host3.app[12].destPort = 1001
*.host4.numApps = 5
*.host4.app[0].typename = "UdpBasicApp"
*.host4.app[0].destAddresses = "host2"
*.host4.app[0].source.packetNameFormat = "%M-%m-%c"
*.host4.app[0].source.displayStringTextFormat = "sent %p pk (%l)"
*.host4.app[0].messageLength = 20B
*.host4.app[0].sendInterval = 1ms
*.host4.app[0].startTime = 300us
*.host4.app[0].stopTime = 700us
*.host4.app[0].display-name = "type2_2"
*.host4.app[0].destPort = 1001
*.host4.app[1].typename = "UdpBasicApp"
*.host4.app[1].destAddresses = "host2"
*.host4.app[1].source.packetNameFormat = "%M-%m-%c"
*.host4.app[1].source.displayStringTextFormat = "sent %p pk (%l)"
*.host4.app[1].messageLength = 20B
*.host4.app[1].sendInterval = 1ms
*.host4.app[1].startTime = 1200us
*.host4.app[1].stopTime = 3500us
*.host4.app[1].display-name = "type2_2"
*.host4.app[1].destPort = 1001
*.host4.app[2].typename = "UdpBasicApp"
*.host4.app[2].destAddresses = "host2"
*.host4.app[2].source.packetNameFormat = "%M-%m-%c"
*.host4.app[2].source.displayStringTextFormat = "sent %p pk (%l)"
*.host4.app[2].messageLength = 20B
*.host4.app[2].sendInterval = 1ms
*.host4.app[2].startTime = 3700us
*.host4.app[2].stopTime = 6600us
*.host4.app[2].display-name = "type2_2"
*.host4.app[2].destPort = 1001
*.host4.app[3].typename = "UdpBasicApp"
*.host4.app[3].destAddresses = "host2"
*.host4.app[3].source.packetNameFormat = "%M-%m-%c"
*.host4.app[3].source.displayStringTextFormat = "sent %p pk (%l)"
*.host4.app[3].messageLength = 20B
*.host4.app[3].sendInterval = 1ms
*.host4.app[3].startTime = 6800us
*.host4.app[3].stopTime = 8000us
*.host4.app[3].display-name = "type2_2"
*.host4.app[3].destPort = 1001
*.host4.app[4].typename = "UdpBasicApp"
*.host4.app[4].destAddresses = "host2"
*.host4.app[4].source.packetNameFormat = "%M-%m-%c"
*.host4.app[4].source.displayStringTextFormat = "sent %p pk (%l)"
*.host4.app[4].messageLength = 20B
*.host4.app[4].sendInterval = 1ms
*.host4.app[4].startTime = 9500us
*.host4.app[4].stopTime = 10000us
*.host4.app[4].display-name = "type2_2"
*.host4.app[4].destPort = 1001
*.host5.numApps = 6
*.host5.app[0].typename = "UdpSinkApp"
*.host5.app[0].io.localPort = 1000
*.host5.app[1].typename = "UdpBasicApp"
*.host5.app[1].destAddresses = "host1"
*.host5.app[1].source.packetNameFormat = "%M-%m-%c"
*.host5.app[1].source.displayStringTextFormat = "sent %p pk (%l)"
*.host5.app[1].messageLength = 23B
*.host5.app[1].sendInterval = 1ms
*.host5.app[1].startTime = 1800us
*.host5.app[1].stopTime = 2000us
*.host5.app[1].display-name = "type2_7"
*.host5.app[1].destPort = 1002
*.host5.app[2].typename = "UdpBasicApp"
*.host5.app[2].destAddresses = "host1"
*.host5.app[2].source.packetNameFormat = "%M-%m-%c"
*.host5.app[2].source.displayStringTextFormat = "sent %p pk (%l)"
*.host5.app[2].messageLength = 23B
*.host5.app[2].sendInterval = 1ms
*.host5.app[2].startTime = 3100us
*.host5.app[2].stopTime = 5100us
*.host5.app[2].display-name = "type2_7"
*.host5.app[2].destPort = 1002
*.host5.app[3].typename = "UdpBasicApp"
*.host5.app[3].destAddresses = "host1"
*.host5.app[3].source.packetNameFormat = "%M-%m-%c"
*.host5.app[3].source.displayStringTextFormat = "sent %p pk (%l)"
*.host5.app[3].messageLength = 23B
*.host5.app[3].sendInterval = 1ms
*.host5.app[3].startTime = 5200us
*.host5.app[3].stopTime = 5400us
*.host5.app[3].display-name = "type2_7"
*.host5.app[3].destPort = 1002
*.host5.app[4].typename = "UdpBasicApp"
*.host5.app[4].destAddresses = "host1"
*.host5.app[4].source.packetNameFormat = "%M-%m-%c"
*.host5.app[4].source.displayStringTextFormat = "sent %p pk (%l)"
*.host5.app[4].messageLength = 23B
*.host5.app[4].sendInterval = 1ms
*.host5.app[4].startTime = 6000us
*.host5.app[4].stopTime = 7800us
*.host5.app[4].display-name = "type2_7"
*.host5.app[4].destPort = 1002
*.host5.app[5].typename = "UdpBasicApp"
*.host5.app[5].destAddresses = "host1"
*.host5.app[5].source.packetNameFormat = "%M-%m-%c"
*.host5.app[5].source.displayStringTextFormat = "sent %p pk (%l)"
*.host5.app[5].messageLength = 23B
*.host5.app[5].sendInterval = 1ms
*.host5.app[5].startTime = 9100us
*.host5.app[5].stopTime = 9200us
*.host5.app[5].display-name = "type2_7"
*.host5.app[5].destPort = 1002
*.host6.numApps = 7
*.host6.app[0].typename = "UdpSourceApp"
*.host6.app[0].io.destAddress = "host1"
*.host6.app[0].source.packetNameFormat = "%M-%m-%c"
*.host6.app[0].source.displayStringTextFormat = "sent %p pk (%l)"
*.host6.app[0].source.packetLength = 14B
*.host6.app[0].source.productionInterval = 1ms
*.host6.app[0].display-name = "type1_0"
*.host6.app[0].io.destPort = 1000
*.host6.app[1].typename = "UdpBasicApp"
*.host6.app[1].destAddresses = "host8"
*.host6.app[1].source.packetNameFormat = "%M-%m-%c"
*.host6.app[1].source.displayStringTextFormat = "sent %p pk (%l)"
*.host6.app[1].messageLength = 19B
*.host6.app[1].sendInterval = 1ms
*.host6.app[1].startTime = 0us
*.host6.app[1].stopTime = 200us
*.host6.app[1].display-name = "type2_5"
*.host6.app[1].destPort = 1001
*.host6.app[2].typename = "UdpBasicApp"
*.host6.app[2].destAddresses = "host8"
*.host6.app[2].source.packetNameFormat = "%M-%m-%c"
*.host6.app[2].source.displayStringTextFormat = "sent %p pk (%l)"
*.host6.app[2].messageLength = 19B
*.host6.app[2].sendInterval = 1ms
*.host6.app[2].startTime = 800us
*.host6.app[2].stopTime = 1200us
*.host6.app[2].display-name = "type2_5"
*.host6.app[2].destPort = 1001
*.host6.app[3].typename = "UdpBasicApp"
*.host6.app[3].destAddresses = "host8"
*.host6.app[3].source.packetNameFormat = "%M-%m-%c"
*.host6.app[3].source.displayStringTextFormat = "sent %p pk (%l)"
*.host6.app[3].messageLength = 19B
*.host6.app[3].sendInterval = 1ms
*.host6.app[3].startTime = 1300us
*.host6.app[3].stopTime = 2300us
*.host6.app[3].display-name = "type2_5"
*.host6.app[3].destPort = 1001
*.host6.app[4].typename = "UdpBasicApp"
*.host6.app[4].destAddresses = "host8"
*.host6.app[4].source.packetNameFormat = "%M-%m-%c"
*.host6.app[4].source.displayStringTextFormat = "sent %p pk (%l)"
*.host6.app[4].messageLength = 19B
*.host6.app[4].sendInterval = 1ms
*.host6.app[4].startTime = 3200us
*.host6.app[4].stopTime = 4200us
*.host6.app[4].display-name = "type2_5"
*.host6.app[4].destPort = 1001
*.host6.app[5].typename = "UdpBasicApp"
*.host6.app[5].destAddresses = "host8"
*.host6.app[5].source.packetNameFormat = "%M-%m-%c"
*.host6.app[5].source.displayStringTextFormat = "sent %p pk (%l)"
*.host6.app[5].messageLength = 19B
*.host6.app[5].sendInterval = 1ms
*.host6.app[5].startTime = 4700us
*.host6.app[5].stopTime = 5900us
*.host6.app[5].display-name = "type2_5"
*.host6.app[5].destPort = 1001
*.host6.app[6].typename = "UdpBasicApp"
*.host6.app[6].destAddresses = "host8"
*.host6.app[6].source.packetNameFormat = "%M-%m-%c"
*.host6.app[6].source.displayStringTextFormat = "sent %p pk (%l)"
*.host6.app[6].messageLength = 19B
*.host6.app[6].sendInterval = 1ms
*.host6.app[6].startTime = 7300us
*.host6.app[6].stopTime = 8300us
*.host6.app[6].display-name = "type2_5"
*.host6.app[6].destPort = 1001
*.host7.numApps = 2
*.host7.app[0].typename = "UdpSinkApp"
*.host7.app[0].io.localPort = 1000
*.host7.app[1].typename = "UdpSinkApp"
*.host7.app[1].io.localPort = 1001
*.host8.numApps = 2
*.host8.app[0].typename = "UdpSinkApp"
*.host8.app[0].io.localPort = 1000
*.host8.app[1].typename = "UdpSinkApp"
*.host8.app[1].io.localPort = 1001
*.host9.numApps = 1
*.host9.app[0].typename = "UdpSinkApp"
*.host9.app[0].io.localPort = 1000
*.streamRedundancyConfigurator.configuration = [
	{
		name: "S1-0",
		packetFilter: "*-type1_0-*",
		source: "host6",
		destination: "host1",
		trees: [[["host6", "switch6", "switch1", "host1"]]]
	},
	{
		name: "S1-1",
		packetFilter: "*-type1_1-*",
		source: "host0",
		destination: "host1",
		trees: [[["host0", "switch0", "switch8", "switch1", "host1"]]]
	},
	{
		name: "S1-2",
		packetFilter: "*-type1_2-*",
		source: "host0",
		destination: "host2",
		trees: [[["host0", "switch0", "switch9", "switch6", "switch2", "host2"]]]
	},
	{
		name: "S2-0",
		packetFilter: "*-type2_0-*",
		source: "host2",
		destination: "host7",
		trees: [[["host2", "switch2", "switch1", "switch8", "switch7", "host7"]]]
	},
	{
		name: "S2-1",
		packetFilter: "*-type2_1-*",
		source: "host1",
		destination: "host0",
		trees: [[["host1",
	 "switch1",
	 "switch8",
	 "switch6",
	 "switch7",
	 "switch9",
	 "switch0",
	 "host0"]]]
	},
	{
		name: "S2-2",
		packetFilter: "*-type2_2-*",
		source: "host4",
		destination: "host2",
		trees: [[["host4",
	 "switch4",
	 "switch6",
	 "switch0",
	 "switch3",
	 "switch1",
	 "switch2",
	 "host2"]]]
	},
	{
		name: "S2-3",
		packetFilter: "*-type2_3-*",
		source: "host3",
		destination: "host8",
		trees: [[["host3", "switch3", "switch1", "switch8", "host8"]]]
	},
	{
		name: "S2-4",
		packetFilter: "*-type2_4-*",
		source: "host1",
		destination: "host9",
		trees: [[["host1", "switch1", "switch8", "switch6", "switch7", "switch9", "host9"]]]
	},
	{
		name: "S2-5",
		packetFilter: "*-type2_5-*",
		source: "host6",
		destination: "host8",
		trees: [[["host6", "switch6", "switch0", "switch3", "switch1", "switch8", "host8"]]]
	},
	{
		name: "S2-6",
		packetFilter: "*-type2_6-*",
		source: "host0",
		destination: "host5",
		trees: [[["host0",
	 "switch0",
	 "switch3",
	 "switch1",
	 "switch8",
	 "switch7",
	 "switch5",
	 "host5"]]]
	},
	{
		name: "S2-7",
		packetFilter: "*-type2_7-*",
		source: "host5",
		destination: "host1",
		trees: [[["host5",
	 "switch5",
	 "switch4",
	 "switch6",
	 "switch0",
	 "switch3",
	 "switch1",
	 "host1"]]]
	},
	{
		name: "S2-8",
		packetFilter: "*-type2_8-*",
		source: "host3",
		destination: "host7",
		trees: [[["host3", "switch3", "switch1", "switch8", "switch7", "host7"]]]
	}]
	

