[General]
network = TSN_multipath
sim-time-limit = 100ms
*.macForwardingTableConfigurator.typename = ""
*.*.hasStreamRedundancy = true
*.*.bridging.streamRelay.typename = "StreamRelayLayer"
*.*.bridging.streamCoder.typename = "StreamCoderLayer"
*.streamRedundancyConfigurator.typename = "StreamRedundancyConfigurator"
*.host0.eth[0].bitrate = 1000Mbps
*.switch0.eth[0].bitrate = 1000Mbps
*.switch0.eth[1].bitrate = 2100Mbps
*.switch0.eth[2].bitrate = 1700Mbps
*.switch0.eth[3].bitrate = 1900Mbps
*.switch0.eth[4].bitrate = 2200Mbps
*.switch0.eth[5].bitrate = 2100Mbps
*.switch0.eth[6].bitrate = 1700Mbps
*.host1.eth[0].bitrate = 1000Mbps
*.switch1.eth[0].bitrate = 1000Mbps
*.switch1.eth[1].bitrate = 1900Mbps
*.switch1.eth[2].bitrate = 1400Mbps
*.switch1.eth[3].bitrate = 1500Mbps
*.switch1.eth[4].bitrate = 1400Mbps
*.switch1.eth[5].bitrate = 2000Mbps
*.switch1.eth[6].bitrate = 1500Mbps
*.switch1.eth[7].bitrate = 1600Mbps
*.switch1.eth[8].bitrate = 2100Mbps
*.switch1.eth[9].bitrate = 1400Mbps
*.switch1.eth[10].bitrate = 2000Mbps
*.switch1.eth[11].bitrate = 1500Mbps
*.switch1.eth[12].bitrate = 2000Mbps
*.host2.eth[0].bitrate = 1000Mbps
*.switch2.eth[0].bitrate = 1000Mbps
*.switch2.eth[1].bitrate = 1400Mbps
*.switch2.eth[2].bitrate = 2100Mbps
*.switch2.eth[3].bitrate = 1500Mbps
*.switch2.eth[4].bitrate = 1300Mbps
*.switch2.eth[5].bitrate = 1400Mbps
*.switch2.eth[6].bitrate = 1700Mbps
*.switch2.eth[7].bitrate = 1800Mbps
*.switch2.eth[8].bitrate = 1400Mbps
*.switch2.eth[9].bitrate = 1500Mbps
*.switch2.eth[10].bitrate = 2400Mbps
*.host3.eth[0].bitrate = 1000Mbps
*.switch3.eth[0].bitrate = 1000Mbps
*.switch3.eth[1].bitrate = 2100Mbps
*.switch3.eth[2].bitrate = 1500Mbps
*.switch3.eth[3].bitrate = 1800Mbps
*.switch3.eth[4].bitrate = 1800Mbps
*.switch3.eth[5].bitrate = 2100Mbps
*.switch3.eth[6].bitrate = 1800Mbps
*.switch3.eth[7].bitrate = 1700Mbps
*.switch3.eth[8].bitrate = 2000Mbps
*.switch3.eth[9].bitrate = 2000Mbps
*.switch3.eth[10].bitrate = 2000Mbps
*.switch3.eth[11].bitrate = 1500Mbps
*.switch3.eth[12].bitrate = 1300Mbps
*.host4.eth[0].bitrate = 1000Mbps
*.switch4.eth[0].bitrate = 1000Mbps
*.switch4.eth[1].bitrate = 1400Mbps
*.switch4.eth[2].bitrate = 1800Mbps
*.switch4.eth[3].bitrate = 2200Mbps
*.switch4.eth[4].bitrate = 1400Mbps
*.switch4.eth[5].bitrate = 1400Mbps
*.switch4.eth[6].bitrate = 2000Mbps
*.switch4.eth[7].bitrate = 1800Mbps
*.switch4.eth[8].bitrate = 1800Mbps
*.switch4.eth[9].bitrate = 2300Mbps
*.switch4.eth[10].bitrate = 2300Mbps
*.switch4.eth[11].bitrate = 2300Mbps
*.host5.eth[0].bitrate = 1000Mbps
*.switch5.eth[0].bitrate = 1000Mbps
*.switch5.eth[1].bitrate = 2000Mbps
*.switch5.eth[2].bitrate = 1500Mbps
*.switch5.eth[3].bitrate = 1800Mbps
*.switch5.eth[4].bitrate = 2100Mbps
*.switch5.eth[5].bitrate = 2000Mbps
*.switch5.eth[6].bitrate = 1500Mbps
*.switch5.eth[7].bitrate = 2000Mbps
*.switch5.eth[8].bitrate = 2300Mbps
*.switch5.eth[9].bitrate = 1700Mbps
*.switch5.eth[10].bitrate = 1200Mbps
*.switch5.eth[11].bitrate = 1300Mbps
*.switch5.eth[12].bitrate = 1600Mbps
*.switch5.eth[13].bitrate = 1200Mbps
*.host6.eth[0].bitrate = 1000Mbps
*.switch6.eth[0].bitrate = 1000Mbps
*.switch6.eth[1].bitrate = 2100Mbps
*.switch6.eth[2].bitrate = 1800Mbps
*.switch6.eth[3].bitrate = 1700Mbps
*.switch6.eth[4].bitrate = 1600Mbps
*.switch6.eth[5].bitrate = 1300Mbps
*.switch6.eth[6].bitrate = 2300Mbps
*.host7.eth[0].bitrate = 1000Mbps
*.switch7.eth[0].bitrate = 1000Mbps
*.switch7.eth[1].bitrate = 1700Mbps
*.switch7.eth[2].bitrate = 1500Mbps
*.switch7.eth[3].bitrate = 1300Mbps
*.switch7.eth[4].bitrate = 1800Mbps
*.switch7.eth[5].bitrate = 2300Mbps
*.switch7.eth[6].bitrate = 1200Mbps
*.switch7.eth[7].bitrate = 2400Mbps
*.switch7.eth[8].bitrate = 2000Mbps
*.switch7.eth[9].bitrate = 1200Mbps
*.switch7.eth[10].bitrate = 1300Mbps
*.switch7.eth[11].bitrate = 1600Mbps
*.switch7.eth[12].bitrate = 1300Mbps
*.host8.eth[0].bitrate = 1000Mbps
*.switch8.eth[0].bitrate = 1000Mbps
*.switch8.eth[1].bitrate = 1600Mbps
*.switch8.eth[2].bitrate = 1400Mbps
*.switch8.eth[3].bitrate = 1700Mbps
*.switch8.eth[4].bitrate = 2300Mbps
*.switch8.eth[5].bitrate = 1300Mbps
*.switch8.eth[6].bitrate = 1500Mbps
*.switch8.eth[7].bitrate = 1500Mbps
*.switch8.eth[8].bitrate = 2300Mbps
*.switch8.eth[9].bitrate = 1300Mbps
*.switch8.eth[10].bitrate = 2300Mbps
*.switch8.eth[11].bitrate = 2400Mbps
*.host9.eth[0].bitrate = 1000Mbps
*.switch9.eth[0].bitrate = 1000Mbps
*.switch9.eth[1].bitrate = 1700Mbps
*.switch9.eth[2].bitrate = 1600Mbps
*.switch9.eth[3].bitrate = 2300Mbps
*.switch9.eth[4].bitrate = 1700Mbps
*.switch9.eth[5].bitrate = 2000Mbps
*.switch9.eth[6].bitrate = 1300Mbps
*.switch9.eth[7].bitrate = 2400Mbps
*.host0.numApps = 11
*.host0.app[0].typename = "UdpSinkApp"
*.host0.app[0].io.localPort = 1000
*.host0.app[1].typename = "UdpBasicApp"
*.host0.app[1].destAddresses = "host9"
*.host0.app[1].source.packetNameFormat = "%M-%m-%c"
*.host0.app[1].source.displayStringTextFormat = "sent %p pk (%l)"
*.host0.app[1].messageLength = 12B
*.host0.app[1].sendInterval = 1ms
*.host0.app[1].startTime = 4ms
*.host0.app[1].stopTime = 9ms
*.host0.app[1].display-name = "type2_2"
*.host0.app[1].destPort = 1001
*.host0.app[2].typename = "UdpBasicApp"
*.host0.app[2].destAddresses = "host9"
*.host0.app[2].source.packetNameFormat = "%M-%m-%c"
*.host0.app[2].source.displayStringTextFormat = "sent %p pk (%l)"
*.host0.app[2].messageLength = 12B
*.host0.app[2].sendInterval = 1ms
*.host0.app[2].startTime = 19ms
*.host0.app[2].stopTime = 27ms
*.host0.app[2].display-name = "type2_2"
*.host0.app[2].destPort = 1001
*.host0.app[3].typename = "UdpBasicApp"
*.host0.app[3].destAddresses = "host9"
*.host0.app[3].source.packetNameFormat = "%M-%m-%c"
*.host0.app[3].source.displayStringTextFormat = "sent %p pk (%l)"
*.host0.app[3].messageLength = 12B
*.host0.app[3].sendInterval = 1ms
*.host0.app[3].startTime = 57ms
*.host0.app[3].stopTime = 64ms
*.host0.app[3].display-name = "type2_2"
*.host0.app[3].destPort = 1001
*.host0.app[4].typename = "UdpBasicApp"
*.host0.app[4].destAddresses = "host9"
*.host0.app[4].source.packetNameFormat = "%M-%m-%c"
*.host0.app[4].source.displayStringTextFormat = "sent %p pk (%l)"
*.host0.app[4].messageLength = 12B
*.host0.app[4].sendInterval = 1ms
*.host0.app[4].startTime = 67ms
*.host0.app[4].stopTime = 88ms
*.host0.app[4].display-name = "type2_2"
*.host0.app[4].destPort = 1001
*.host0.app[5].typename = "UdpBasicApp"
*.host0.app[5].destAddresses = "host9"
*.host0.app[5].source.packetNameFormat = "%M-%m-%c"
*.host0.app[5].source.displayStringTextFormat = "sent %p pk (%l)"
*.host0.app[5].messageLength = 12B
*.host0.app[5].sendInterval = 1ms
*.host0.app[5].startTime = 93ms
*.host0.app[5].stopTime = 100ms
*.host0.app[5].display-name = "type2_2"
*.host0.app[5].destPort = 1001
*.host0.app[6].typename = "UdpBasicApp"
*.host0.app[6].destAddresses = "host5"
*.host0.app[6].source.packetNameFormat = "%M-%m-%c"
*.host0.app[6].source.displayStringTextFormat = "sent %p pk (%l)"
*.host0.app[6].messageLength = 21B
*.host0.app[6].sendInterval = 1ms
*.host0.app[6].startTime = 13ms
*.host0.app[6].stopTime = 16ms
*.host0.app[6].display-name = "type2_5"
*.host0.app[6].destPort = 1000
*.host0.app[7].typename = "UdpBasicApp"
*.host0.app[7].destAddresses = "host5"
*.host0.app[7].source.packetNameFormat = "%M-%m-%c"
*.host0.app[7].source.displayStringTextFormat = "sent %p pk (%l)"
*.host0.app[7].messageLength = 21B
*.host0.app[7].sendInterval = 1ms
*.host0.app[7].startTime = 17ms
*.host0.app[7].stopTime = 30ms
*.host0.app[7].display-name = "type2_5"
*.host0.app[7].destPort = 1000
*.host0.app[8].typename = "UdpBasicApp"
*.host0.app[8].destAddresses = "host5"
*.host0.app[8].source.packetNameFormat = "%M-%m-%c"
*.host0.app[8].source.displayStringTextFormat = "sent %p pk (%l)"
*.host0.app[8].messageLength = 21B
*.host0.app[8].sendInterval = 1ms
*.host0.app[8].startTime = 36ms
*.host0.app[8].stopTime = 39ms
*.host0.app[8].display-name = "type2_5"
*.host0.app[8].destPort = 1000
*.host0.app[9].typename = "UdpBasicApp"
*.host0.app[9].destAddresses = "host5"
*.host0.app[9].source.packetNameFormat = "%M-%m-%c"
*.host0.app[9].source.displayStringTextFormat = "sent %p pk (%l)"
*.host0.app[9].messageLength = 21B
*.host0.app[9].sendInterval = 1ms
*.host0.app[9].startTime = 51ms
*.host0.app[9].stopTime = 52ms
*.host0.app[9].display-name = "type2_5"
*.host0.app[9].destPort = 1000
*.host0.app[10].typename = "UdpBasicApp"
*.host0.app[10].destAddresses = "host5"
*.host0.app[10].source.packetNameFormat = "%M-%m-%c"
*.host0.app[10].source.displayStringTextFormat = "sent %p pk (%l)"
*.host0.app[10].messageLength = 21B
*.host0.app[10].sendInterval = 1ms
*.host0.app[10].startTime = 68ms
*.host0.app[10].stopTime = 80ms
*.host0.app[10].display-name = "type2_5"
*.host0.app[10].destPort = 1000
*.host1.numApps = 1
*.host1.app[0].typename = "UdpSinkApp"
*.host1.app[0].io.localPort = 1000
*.host2.numApps = 3
*.host2.app[0].typename = "UdpSinkApp"
*.host2.app[0].io.localPort = 1000
*.host2.app[1].typename = "UdpSourceApp"
*.host2.app[1].io.destAddress = "host7"
*.host2.app[1].source.packetNameFormat = "%M-%m-%c"
*.host2.app[1].source.displayStringTextFormat = "sent %p pk (%l)"
*.host2.app[1].source.packetLength = 23B
*.host2.app[1].source.productionInterval = 1ms
*.host2.app[1].display-name = "type1_2"
*.host2.app[1].io.destPort = 1000
*.host2.app[2].typename = "UdpSinkApp"
*.host2.app[2].io.localPort = 1001
*.host3.numApps = 8
*.host3.app[0].typename = "UdpSourceApp"
*.host3.app[0].io.destAddress = "host2"
*.host3.app[0].source.packetNameFormat = "%M-%m-%c"
*.host3.app[0].source.displayStringTextFormat = "sent %p pk (%l)"
*.host3.app[0].source.packetLength = 20B
*.host3.app[0].source.productionInterval = 1ms
*.host3.app[0].display-name = "type1_1"
*.host3.app[0].io.destPort = 1000
*.host3.app[1].typename = "UdpBasicApp"
*.host3.app[1].destAddresses = "host4"
*.host3.app[1].source.packetNameFormat = "%M-%m-%c"
*.host3.app[1].source.displayStringTextFormat = "sent %p pk (%l)"
*.host3.app[1].messageLength = 15B
*.host3.app[1].sendInterval = 1ms
*.host3.app[1].startTime = 1ms
*.host3.app[1].stopTime = 5ms
*.host3.app[1].display-name = "type2_8"
*.host3.app[1].destPort = 1000
*.host3.app[2].typename = "UdpBasicApp"
*.host3.app[2].destAddresses = "host4"
*.host3.app[2].source.packetNameFormat = "%M-%m-%c"
*.host3.app[2].source.displayStringTextFormat = "sent %p pk (%l)"
*.host3.app[2].messageLength = 15B
*.host3.app[2].sendInterval = 1ms
*.host3.app[2].startTime = 13ms
*.host3.app[2].stopTime = 14ms
*.host3.app[2].display-name = "type2_8"
*.host3.app[2].destPort = 1000
*.host3.app[3].typename = "UdpBasicApp"
*.host3.app[3].destAddresses = "host4"
*.host3.app[3].source.packetNameFormat = "%M-%m-%c"
*.host3.app[3].source.displayStringTextFormat = "sent %p pk (%l)"
*.host3.app[3].messageLength = 15B
*.host3.app[3].sendInterval = 1ms
*.host3.app[3].startTime = 31ms
*.host3.app[3].stopTime = 45ms
*.host3.app[3].display-name = "type2_8"
*.host3.app[3].destPort = 1000
*.host3.app[4].typename = "UdpBasicApp"
*.host3.app[4].destAddresses = "host4"
*.host3.app[4].source.packetNameFormat = "%M-%m-%c"
*.host3.app[4].source.displayStringTextFormat = "sent %p pk (%l)"
*.host3.app[4].messageLength = 15B
*.host3.app[4].sendInterval = 1ms
*.host3.app[4].startTime = 58ms
*.host3.app[4].stopTime = 67ms
*.host3.app[4].display-name = "type2_8"
*.host3.app[4].destPort = 1000
*.host3.app[5].typename = "UdpBasicApp"
*.host3.app[5].destAddresses = "host4"
*.host3.app[5].source.packetNameFormat = "%M-%m-%c"
*.host3.app[5].source.displayStringTextFormat = "sent %p pk (%l)"
*.host3.app[5].messageLength = 15B
*.host3.app[5].sendInterval = 1ms
*.host3.app[5].startTime = 80ms
*.host3.app[5].stopTime = 81ms
*.host3.app[5].display-name = "type2_8"
*.host3.app[5].destPort = 1000
*.host3.app[6].typename = "UdpBasicApp"
*.host3.app[6].destAddresses = "host4"
*.host3.app[6].source.packetNameFormat = "%M-%m-%c"
*.host3.app[6].source.displayStringTextFormat = "sent %p pk (%l)"
*.host3.app[6].messageLength = 15B
*.host3.app[6].sendInterval = 1ms
*.host3.app[6].startTime = 82ms
*.host3.app[6].stopTime = 89ms
*.host3.app[6].display-name = "type2_8"
*.host3.app[6].destPort = 1000
*.host3.app[7].typename = "UdpBasicApp"
*.host3.app[7].destAddresses = "host4"
*.host3.app[7].source.packetNameFormat = "%M-%m-%c"
*.host3.app[7].source.displayStringTextFormat = "sent %p pk (%l)"
*.host3.app[7].messageLength = 15B
*.host3.app[7].sendInterval = 1ms
*.host3.app[7].startTime = 97ms
*.host3.app[7].stopTime = 99ms
*.host3.app[7].display-name = "type2_8"
*.host3.app[7].destPort = 1000
*.host4.numApps = 1
*.host4.app[0].typename = "UdpSinkApp"
*.host4.app[0].io.localPort = 1000
*.host5.numApps = 9
*.host5.app[0].typename = "UdpSourceApp"
*.host5.app[0].io.destAddress = "host1"
*.host5.app[0].source.packetNameFormat = "%M-%m-%c"
*.host5.app[0].source.displayStringTextFormat = "sent %p pk (%l)"
*.host5.app[0].source.packetLength = 14B
*.host5.app[0].source.productionInterval = 1ms
*.host5.app[0].display-name = "type1_0"
*.host5.app[0].io.destPort = 1000
*.host5.app[1].typename = "UdpSinkApp"
*.host5.app[1].io.localPort = 1000
*.host5.app[2].typename = "UdpBasicApp"
*.host5.app[2].destAddresses = "host7"
*.host5.app[2].source.packetNameFormat = "%M-%m-%c"
*.host5.app[2].source.displayStringTextFormat = "sent %p pk (%l)"
*.host5.app[2].messageLength = 18B
*.host5.app[2].sendInterval = 1ms
*.host5.app[2].startTime = 18ms
*.host5.app[2].stopTime = 36ms
*.host5.app[2].display-name = "type2_6"
*.host5.app[2].destPort = 1001
*.host5.app[3].typename = "UdpBasicApp"
*.host5.app[3].destAddresses = "host7"
*.host5.app[3].source.packetNameFormat = "%M-%m-%c"
*.host5.app[3].source.displayStringTextFormat = "sent %p pk (%l)"
*.host5.app[3].messageLength = 18B
*.host5.app[3].sendInterval = 1ms
*.host5.app[3].startTime = 37ms
*.host5.app[3].stopTime = 39ms
*.host5.app[3].display-name = "type2_6"
*.host5.app[3].destPort = 1001
*.host5.app[4].typename = "UdpBasicApp"
*.host5.app[4].destAddresses = "host8"
*.host5.app[4].source.packetNameFormat = "%M-%m-%c"
*.host5.app[4].source.displayStringTextFormat = "sent %p pk (%l)"
*.host5.app[4].messageLength = 19B
*.host5.app[4].sendInterval = 1ms
*.host5.app[4].startTime = 4ms
*.host5.app[4].stopTime = 10ms
*.host5.app[4].display-name = "type2_7"
*.host5.app[4].destPort = 1000
*.host5.app[5].typename = "UdpBasicApp"
*.host5.app[5].destAddresses = "host8"
*.host5.app[5].source.packetNameFormat = "%M-%m-%c"
*.host5.app[5].source.displayStringTextFormat = "sent %p pk (%l)"
*.host5.app[5].messageLength = 19B
*.host5.app[5].sendInterval = 1ms
*.host5.app[5].startTime = 20ms
*.host5.app[5].stopTime = 23ms
*.host5.app[5].display-name = "type2_7"
*.host5.app[5].destPort = 1000
*.host5.app[6].typename = "UdpBasicApp"
*.host5.app[6].destAddresses = "host8"
*.host5.app[6].source.packetNameFormat = "%M-%m-%c"
*.host5.app[6].source.displayStringTextFormat = "sent %p pk (%l)"
*.host5.app[6].messageLength = 19B
*.host5.app[6].sendInterval = 1ms
*.host5.app[6].startTime = 30ms
*.host5.app[6].stopTime = 31ms
*.host5.app[6].display-name = "type2_7"
*.host5.app[6].destPort = 1000
*.host5.app[7].typename = "UdpBasicApp"
*.host5.app[7].destAddresses = "host8"
*.host5.app[7].source.packetNameFormat = "%M-%m-%c"
*.host5.app[7].source.displayStringTextFormat = "sent %p pk (%l)"
*.host5.app[7].messageLength = 19B
*.host5.app[7].sendInterval = 1ms
*.host5.app[7].startTime = 32ms
*.host5.app[7].stopTime = 35ms
*.host5.app[7].display-name = "type2_7"
*.host5.app[7].destPort = 1000
*.host5.app[8].typename = "UdpBasicApp"
*.host5.app[8].destAddresses = "host8"
*.host5.app[8].source.packetNameFormat = "%M-%m-%c"
*.host5.app[8].source.displayStringTextFormat = "sent %p pk (%l)"
*.host5.app[8].messageLength = 19B
*.host5.app[8].sendInterval = 1ms
*.host5.app[8].startTime = 53ms
*.host5.app[8].stopTime = 61ms
*.host5.app[8].display-name = "type2_7"
*.host5.app[8].destPort = 1000
*.host6.numApps = 5
*.host6.app[0].typename = "UdpBasicApp"
*.host6.app[0].destAddresses = "host0"
*.host6.app[0].source.packetNameFormat = "%M-%m-%c"
*.host6.app[0].source.displayStringTextFormat = "sent %p pk (%l)"
*.host6.app[0].messageLength = 13B
*.host6.app[0].sendInterval = 1ms
*.host6.app[0].startTime = 26ms
*.host6.app[0].stopTime = 30ms
*.host6.app[0].display-name = "type2_0"
*.host6.app[0].destPort = 1000
*.host6.app[1].typename = "UdpBasicApp"
*.host6.app[1].destAddresses = "host0"
*.host6.app[1].source.packetNameFormat = "%M-%m-%c"
*.host6.app[1].source.displayStringTextFormat = "sent %p pk (%l)"
*.host6.app[1].messageLength = 13B
*.host6.app[1].sendInterval = 1ms
*.host6.app[1].startTime = 39ms
*.host6.app[1].stopTime = 47ms
*.host6.app[1].display-name = "type2_0"
*.host6.app[1].destPort = 1000
*.host6.app[2].typename = "UdpBasicApp"
*.host6.app[2].destAddresses = "host0"
*.host6.app[2].source.packetNameFormat = "%M-%m-%c"
*.host6.app[2].source.displayStringTextFormat = "sent %p pk (%l)"
*.host6.app[2].messageLength = 13B
*.host6.app[2].sendInterval = 1ms
*.host6.app[2].startTime = 63ms
*.host6.app[2].stopTime = 67ms
*.host6.app[2].display-name = "type2_0"
*.host6.app[2].destPort = 1000
*.host6.app[3].typename = "UdpBasicApp"
*.host6.app[3].destAddresses = "host0"
*.host6.app[3].source.packetNameFormat = "%M-%m-%c"
*.host6.app[3].source.displayStringTextFormat = "sent %p pk (%l)"
*.host6.app[3].messageLength = 13B
*.host6.app[3].sendInterval = 1ms
*.host6.app[3].startTime = 70ms
*.host6.app[3].stopTime = 95ms
*.host6.app[3].display-name = "type2_0"
*.host6.app[3].destPort = 1000
*.host6.app[4].typename = "UdpSinkApp"
*.host6.app[4].io.localPort = 1000
*.host7.numApps = 8
*.host7.app[0].typename = "UdpSinkApp"
*.host7.app[0].io.localPort = 1000
*.host7.app[1].typename = "UdpBasicApp"
*.host7.app[1].destAddresses = "host9"
*.host7.app[1].source.packetNameFormat = "%M-%m-%c"
*.host7.app[1].source.displayStringTextFormat = "sent %p pk (%l)"
*.host7.app[1].messageLength = 17B
*.host7.app[1].sendInterval = 1ms
*.host7.app[1].startTime = 7ms
*.host7.app[1].stopTime = 11ms
*.host7.app[1].display-name = "type2_1"
*.host7.app[1].destPort = 1000
*.host7.app[2].typename = "UdpBasicApp"
*.host7.app[2].destAddresses = "host9"
*.host7.app[2].source.packetNameFormat = "%M-%m-%c"
*.host7.app[2].source.displayStringTextFormat = "sent %p pk (%l)"
*.host7.app[2].messageLength = 17B
*.host7.app[2].sendInterval = 1ms
*.host7.app[2].startTime = 18ms
*.host7.app[2].stopTime = 19ms
*.host7.app[2].display-name = "type2_1"
*.host7.app[2].destPort = 1000
*.host7.app[3].typename = "UdpBasicApp"
*.host7.app[3].destAddresses = "host9"
*.host7.app[3].source.packetNameFormat = "%M-%m-%c"
*.host7.app[3].source.displayStringTextFormat = "sent %p pk (%l)"
*.host7.app[3].messageLength = 17B
*.host7.app[3].sendInterval = 1ms
*.host7.app[3].startTime = 29ms
*.host7.app[3].stopTime = 42ms
*.host7.app[3].display-name = "type2_1"
*.host7.app[3].destPort = 1000
*.host7.app[4].typename = "UdpBasicApp"
*.host7.app[4].destAddresses = "host9"
*.host7.app[4].source.packetNameFormat = "%M-%m-%c"
*.host7.app[4].source.displayStringTextFormat = "sent %p pk (%l)"
*.host7.app[4].messageLength = 17B
*.host7.app[4].sendInterval = 1ms
*.host7.app[4].startTime = 58ms
*.host7.app[4].stopTime = 60ms
*.host7.app[4].display-name = "type2_1"
*.host7.app[4].destPort = 1000
*.host7.app[5].typename = "UdpBasicApp"
*.host7.app[5].destAddresses = "host9"
*.host7.app[5].source.packetNameFormat = "%M-%m-%c"
*.host7.app[5].source.displayStringTextFormat = "sent %p pk (%l)"
*.host7.app[5].messageLength = 17B
*.host7.app[5].sendInterval = 1ms
*.host7.app[5].startTime = 82ms
*.host7.app[5].stopTime = 91ms
*.host7.app[5].display-name = "type2_1"
*.host7.app[5].destPort = 1000
*.host7.app[6].typename = "UdpBasicApp"
*.host7.app[6].destAddresses = "host9"
*.host7.app[6].source.packetNameFormat = "%M-%m-%c"
*.host7.app[6].source.displayStringTextFormat = "sent %p pk (%l)"
*.host7.app[6].messageLength = 17B
*.host7.app[6].sendInterval = 1ms
*.host7.app[6].startTime = 98ms
*.host7.app[6].stopTime = 100ms
*.host7.app[6].display-name = "type2_1"
*.host7.app[6].destPort = 1000
*.host7.app[7].typename = "UdpSinkApp"
*.host7.app[7].io.localPort = 1001
*.host8.numApps = 1
*.host8.app[0].typename = "UdpSinkApp"
*.host8.app[0].io.localPort = 1000
*.host9.numApps = 12
*.host9.app[0].typename = "UdpSinkApp"
*.host9.app[0].io.localPort = 1000
*.host9.app[1].typename = "UdpSinkApp"
*.host9.app[1].io.localPort = 1001
*.host9.app[2].typename = "UdpBasicApp"
*.host9.app[2].destAddresses = "host2"
*.host9.app[2].source.packetNameFormat = "%M-%m-%c"
*.host9.app[2].source.displayStringTextFormat = "sent %p pk (%l)"
*.host9.app[2].messageLength = 17B
*.host9.app[2].sendInterval = 1ms
*.host9.app[2].startTime = 0ms
*.host9.app[2].stopTime = 12ms
*.host9.app[2].display-name = "type2_3"
*.host9.app[2].destPort = 1001
*.host9.app[3].typename = "UdpBasicApp"
*.host9.app[3].destAddresses = "host2"
*.host9.app[3].source.packetNameFormat = "%M-%m-%c"
*.host9.app[3].source.displayStringTextFormat = "sent %p pk (%l)"
*.host9.app[3].messageLength = 17B
*.host9.app[3].sendInterval = 1ms
*.host9.app[3].startTime = 17ms
*.host9.app[3].stopTime = 21ms
*.host9.app[3].display-name = "type2_3"
*.host9.app[3].destPort = 1001
*.host9.app[4].typename = "UdpBasicApp"
*.host9.app[4].destAddresses = "host2"
*.host9.app[4].source.packetNameFormat = "%M-%m-%c"
*.host9.app[4].source.displayStringTextFormat = "sent %p pk (%l)"
*.host9.app[4].messageLength = 17B
*.host9.app[4].sendInterval = 1ms
*.host9.app[4].startTime = 29ms
*.host9.app[4].stopTime = 36ms
*.host9.app[4].display-name = "type2_3"
*.host9.app[4].destPort = 1001
*.host9.app[5].typename = "UdpBasicApp"
*.host9.app[5].destAddresses = "host2"
*.host9.app[5].source.packetNameFormat = "%M-%m-%c"
*.host9.app[5].source.displayStringTextFormat = "sent %p pk (%l)"
*.host9.app[5].messageLength = 17B
*.host9.app[5].sendInterval = 1ms
*.host9.app[5].startTime = 94ms
*.host9.app[5].stopTime = 98ms
*.host9.app[5].display-name = "type2_3"
*.host9.app[5].destPort = 1001
*.host9.app[6].typename = "UdpBasicApp"
*.host9.app[6].destAddresses = "host6"
*.host9.app[6].source.packetNameFormat = "%M-%m-%c"
*.host9.app[6].source.displayStringTextFormat = "sent %p pk (%l)"
*.host9.app[6].messageLength = 21B
*.host9.app[6].sendInterval = 1ms
*.host9.app[6].startTime = 1ms
*.host9.app[6].stopTime = 11ms
*.host9.app[6].display-name = "type2_4"
*.host9.app[6].destPort = 1000
*.host9.app[7].typename = "UdpBasicApp"
*.host9.app[7].destAddresses = "host6"
*.host9.app[7].source.packetNameFormat = "%M-%m-%c"
*.host9.app[7].source.displayStringTextFormat = "sent %p pk (%l)"
*.host9.app[7].messageLength = 21B
*.host9.app[7].sendInterval = 1ms
*.host9.app[7].startTime = 23ms
*.host9.app[7].stopTime = 38ms
*.host9.app[7].display-name = "type2_4"
*.host9.app[7].destPort = 1000
*.host9.app[8].typename = "UdpBasicApp"
*.host9.app[8].destAddresses = "host6"
*.host9.app[8].source.packetNameFormat = "%M-%m-%c"
*.host9.app[8].source.displayStringTextFormat = "sent %p pk (%l)"
*.host9.app[8].messageLength = 21B
*.host9.app[8].sendInterval = 1ms
*.host9.app[8].startTime = 42ms
*.host9.app[8].stopTime = 48ms
*.host9.app[8].display-name = "type2_4"
*.host9.app[8].destPort = 1000
*.host9.app[9].typename = "UdpBasicApp"
*.host9.app[9].destAddresses = "host6"
*.host9.app[9].source.packetNameFormat = "%M-%m-%c"
*.host9.app[9].source.displayStringTextFormat = "sent %p pk (%l)"
*.host9.app[9].messageLength = 21B
*.host9.app[9].sendInterval = 1ms
*.host9.app[9].startTime = 54ms
*.host9.app[9].stopTime = 69ms
*.host9.app[9].display-name = "type2_4"
*.host9.app[9].destPort = 1000
*.host9.app[10].typename = "UdpBasicApp"
*.host9.app[10].destAddresses = "host6"
*.host9.app[10].source.packetNameFormat = "%M-%m-%c"
*.host9.app[10].source.displayStringTextFormat = "sent %p pk (%l)"
*.host9.app[10].messageLength = 21B
*.host9.app[10].sendInterval = 1ms
*.host9.app[10].startTime = 83ms
*.host9.app[10].stopTime = 95ms
*.host9.app[10].display-name = "type2_4"
*.host9.app[10].destPort = 1000
*.host9.app[11].typename = "UdpBasicApp"
*.host9.app[11].destAddresses = "host6"
*.host9.app[11].source.packetNameFormat = "%M-%m-%c"
*.host9.app[11].source.displayStringTextFormat = "sent %p pk (%l)"
*.host9.app[11].messageLength = 21B
*.host9.app[11].sendInterval = 1ms
*.host9.app[11].startTime = 97ms
*.host9.app[11].stopTime = 100ms
*.host9.app[11].display-name = "type2_4"
*.host9.app[11].destPort = 1000
*.streamRedundancyConfigurator.configuration = [
	{
		name: "S1-0",
		packetFilter: "*-type1_0-*",
		source: "host5",
		destination: "host1",
		trees: [[["host5", "switch5", "switch1", "host1"]]]
	},
	{
		name: "S1-1",
		packetFilter: "*-type1_1-*",
		source: "host3",
		destination: "host2",
		trees: [[["host3", "switch3", "switch2", "host2"]]]
	},
	{
		name: "S1-2",
		packetFilter: "*-type1_2-*",
		source: "host2",
		destination: "host7",
		trees: [[["host2", "switch2", "switch7", "host7"]]]
	},
	{
		name: "S2-0",
		packetFilter: "*-type2_0-*",
		source: "host6",
		destination: "host0",
		trees: [[["host6", "switch6", "switch5", "switch7", "switch9", "switch0", "host0"]]]
	},
	{
		name: "S2-1",
		packetFilter: "*-type2_1-*",
		source: "host7",
		destination: "host9",
		trees: [[["host7", "switch7", "switch9", "host9"]]]
	},
	{
		name: "S2-2",
		packetFilter: "*-type2_2-*",
		source: "host0",
		destination: "host9",
		trees: [[["host0",
	 "switch0",
	 "switch3",
	 "switch2",
	 "switch1",
	 "switch4",
	 "switch5",
	 "switch8",
	 "switch9",
	 "host9"]]]
	},
	{
		name: "S2-3",
		packetFilter: "*-type2_3-*",
		source: "host9",
		destination: "host2",
		trees: [[["host9", "switch9", "switch0", "switch3", "switch2", "host2"]]]
	},
	{
		name: "S2-4",
		packetFilter: "*-type2_4-*",
		source: "host9",
		destination: "host6",
		trees: [[["host9",
	 "switch9",
	 "switch0",
	 "switch3",
	 "switch2",
	 "switch1",
	 "switch4",
	 "switch6",
	 "host6"]]]
	},
	{
		name: "S2-5",
		packetFilter: "*-type2_5-*",
		source: "host0",
		destination: "host5",
		trees: [[["host0",
	 "switch0",
	 "switch3",
	 "switch2",
	 "switch1",
	 "switch4",
	 "switch5",
	 "host5"]]]
	},
	{
		name: "S2-6",
		packetFilter: "*-type2_6-*",
		source: "host5",
		destination: "host7",
		trees: [[["host5", "switch5", "switch7", "host7"]]]
	},
	{
		name: "S2-7",
		packetFilter: "*-type2_7-*",
		source: "host5",
		destination: "host8",
		trees: [[["host5", "switch5", "switch8", "host8"]]]
	},
	{
		name: "S2-8",
		packetFilter: "*-type2_8-*",
		source: "host3",
		destination: "host4",
		trees: [[["host3", "switch3", "switch2", "switch1", "switch4", "host4"]]]
	}]
	

