[General]
network = TSN_multipath
sim-time-limit = 100ms
*.macForwardingTableConfigurator.typename = ""
*.*.hasStreamRedundancy = true
*.*.bridging.streamRelay.typename = "StreamRelayLayer"
*.*.bridging.streamCoder.typename = "StreamCoderLayer"
*.streamRedundancyConfigurator.typename = "StreamRedundancyConfigurator"
*.host0.eth[0].bitrate = 1000Mbps
*.switch0.eth[0].bitrate = 1000Mbps
*.switch0.eth[1].bitrate = 1300Mbps
*.switch0.eth[2].bitrate = 1400Mbps
*.switch0.eth[3].bitrate = 1200Mbps
*.switch0.eth[4].bitrate = 1200Mbps
*.switch0.eth[5].bitrate = 1200Mbps
*.switch0.eth[6].bitrate = 2300Mbps
*.switch0.eth[7].bitrate = 1600Mbps
*.switch0.eth[8].bitrate = 2000Mbps
*.switch0.eth[9].bitrate = 1500Mbps
*.switch0.eth[10].bitrate = 2000Mbps
*.switch0.eth[11].bitrate = 1900Mbps
*.switch0.eth[12].bitrate = 2000Mbps
*.switch0.eth[13].bitrate = 2400Mbps
*.switch0.eth[14].bitrate = 1600Mbps
*.host1.eth[0].bitrate = 1000Mbps
*.switch1.eth[0].bitrate = 1000Mbps
*.switch1.eth[1].bitrate = 2300Mbps
*.switch1.eth[2].bitrate = 1200Mbps
*.switch1.eth[3].bitrate = 2100Mbps
*.switch1.eth[4].bitrate = 2300Mbps
*.switch1.eth[5].bitrate = 1200Mbps
*.switch1.eth[6].bitrate = 1700Mbps
*.switch1.eth[7].bitrate = 1700Mbps
*.switch1.eth[8].bitrate = 2100Mbps
*.switch1.eth[9].bitrate = 1900Mbps
*.switch1.eth[10].bitrate = 2100Mbps
*.switch1.eth[11].bitrate = 2300Mbps
*.switch1.eth[12].bitrate = 2200Mbps
*.switch1.eth[13].bitrate = 1700Mbps
*.switch1.eth[14].bitrate = 1800Mbps
*.switch1.eth[15].bitrate = 1600Mbps
*.switch1.eth[16].bitrate = 1700Mbps
*.switch1.eth[17].bitrate = 1800Mbps
*.switch1.eth[18].bitrate = 2300Mbps
*.host2.eth[0].bitrate = 1000Mbps
*.switch2.eth[0].bitrate = 1000Mbps
*.switch2.eth[1].bitrate = 2300Mbps
*.switch2.eth[2].bitrate = 1900Mbps
*.switch2.eth[3].bitrate = 1200Mbps
*.switch2.eth[4].bitrate = 1700Mbps
*.switch2.eth[5].bitrate = 2000Mbps
*.switch2.eth[6].bitrate = 1500Mbps
*.switch2.eth[7].bitrate = 1500Mbps
*.switch2.eth[8].bitrate = 1200Mbps
*.switch2.eth[9].bitrate = 1500Mbps
*.switch2.eth[10].bitrate = 2200Mbps
*.switch2.eth[11].bitrate = 1400Mbps
*.switch2.eth[12].bitrate = 1900Mbps
*.switch2.eth[13].bitrate = 1700Mbps
*.switch2.eth[14].bitrate = 2200Mbps
*.switch2.eth[15].bitrate = 1700Mbps
*.switch2.eth[16].bitrate = 1600Mbps
*.switch2.eth[17].bitrate = 1500Mbps
*.host3.eth[0].bitrate = 1000Mbps
*.switch3.eth[0].bitrate = 1000Mbps
*.switch3.eth[1].bitrate = 1300Mbps
*.switch3.eth[2].bitrate = 1200Mbps
*.switch3.eth[3].bitrate = 2100Mbps
*.switch3.eth[4].bitrate = 2200Mbps
*.switch3.eth[5].bitrate = 2100Mbps
*.switch3.eth[6].bitrate = 1300Mbps
*.switch3.eth[7].bitrate = 2100Mbps
*.switch3.eth[8].bitrate = 1700Mbps
*.switch3.eth[9].bitrate = 1800Mbps
*.switch3.eth[10].bitrate = 1200Mbps
*.switch3.eth[11].bitrate = 1300Mbps
*.switch3.eth[12].bitrate = 1200Mbps
*.switch3.eth[13].bitrate = 1300Mbps
*.switch3.eth[14].bitrate = 1400Mbps
*.switch3.eth[15].bitrate = 2100Mbps
*.switch3.eth[16].bitrate = 1600Mbps
*.switch3.eth[17].bitrate = 1800Mbps
*.switch3.eth[18].bitrate = 1600Mbps
*.switch3.eth[19].bitrate = 1400Mbps
*.switch3.eth[20].bitrate = 1400Mbps
*.switch3.eth[21].bitrate = 1800Mbps
*.switch3.eth[22].bitrate = 1700Mbps
*.host4.eth[0].bitrate = 1000Mbps
*.switch4.eth[0].bitrate = 1000Mbps
*.switch4.eth[1].bitrate = 1200Mbps
*.switch4.eth[2].bitrate = 1200Mbps
*.switch4.eth[3].bitrate = 2100Mbps
*.switch4.eth[4].bitrate = 2300Mbps
*.switch4.eth[5].bitrate = 1400Mbps
*.switch4.eth[6].bitrate = 1800Mbps
*.switch4.eth[7].bitrate = 1800Mbps
*.switch4.eth[8].bitrate = 1300Mbps
*.switch4.eth[9].bitrate = 2100Mbps
*.switch4.eth[10].bitrate = 2200Mbps
*.switch4.eth[11].bitrate = 2000Mbps
*.switch4.eth[12].bitrate = 1900Mbps
*.switch4.eth[13].bitrate = 1600Mbps
*.switch4.eth[14].bitrate = 1400Mbps
*.switch4.eth[15].bitrate = 1600Mbps
*.switch4.eth[16].bitrate = 1700Mbps
*.switch4.eth[17].bitrate = 2000Mbps
*.host5.eth[0].bitrate = 1000Mbps
*.switch5.eth[0].bitrate = 1000Mbps
*.switch5.eth[1].bitrate = 1700Mbps
*.switch5.eth[2].bitrate = 1300Mbps
*.switch5.eth[3].bitrate = 1400Mbps
*.switch5.eth[4].bitrate = 1600Mbps
*.switch5.eth[5].bitrate = 1400Mbps
*.switch5.eth[6].bitrate = 2200Mbps
*.switch5.eth[7].bitrate = 2100Mbps
*.switch5.eth[8].bitrate = 1400Mbps
*.switch5.eth[9].bitrate = 1500Mbps
*.switch5.eth[10].bitrate = 1200Mbps
*.switch5.eth[11].bitrate = 1900Mbps
*.switch5.eth[12].bitrate = 1500Mbps
*.switch5.eth[13].bitrate = 2300Mbps
*.switch5.eth[14].bitrate = 2200Mbps
*.switch5.eth[15].bitrate = 1200Mbps
*.switch5.eth[16].bitrate = 2300Mbps
*.switch5.eth[17].bitrate = 1500Mbps
*.switch5.eth[18].bitrate = 1700Mbps
*.switch5.eth[19].bitrate = 2400Mbps
*.switch5.eth[20].bitrate = 2100Mbps
*.host6.eth[0].bitrate = 1000Mbps
*.switch6.eth[0].bitrate = 1000Mbps
*.switch6.eth[1].bitrate = 1400Mbps
*.switch6.eth[2].bitrate = 2100Mbps
*.switch6.eth[3].bitrate = 2100Mbps
*.switch6.eth[4].bitrate = 2300Mbps
*.switch6.eth[5].bitrate = 1900Mbps
*.switch6.eth[6].bitrate = 2000Mbps
*.switch6.eth[7].bitrate = 2300Mbps
*.switch6.eth[8].bitrate = 1700Mbps
*.switch6.eth[9].bitrate = 1900Mbps
*.switch6.eth[10].bitrate = 2200Mbps
*.switch6.eth[11].bitrate = 1400Mbps
*.switch6.eth[12].bitrate = 1800Mbps
*.switch6.eth[13].bitrate = 1700Mbps
*.switch6.eth[14].bitrate = 2200Mbps
*.switch6.eth[15].bitrate = 1300Mbps
*.switch6.eth[16].bitrate = 1400Mbps
*.switch6.eth[17].bitrate = 2000Mbps
*.switch6.eth[18].bitrate = 2400Mbps
*.switch6.eth[19].bitrate = 1700Mbps
*.switch6.eth[20].bitrate = 2000Mbps
*.switch6.eth[21].bitrate = 1600Mbps
*.switch6.eth[22].bitrate = 1400Mbps
*.switch6.eth[23].bitrate = 1700Mbps
*.switch6.eth[24].bitrate = 2400Mbps
*.switch6.eth[25].bitrate = 2400Mbps
*.switch6.eth[26].bitrate = 1600Mbps
*.host7.eth[0].bitrate = 1000Mbps
*.switch7.eth[0].bitrate = 1000Mbps
*.switch7.eth[1].bitrate = 1700Mbps
*.switch7.eth[2].bitrate = 1700Mbps
*.switch7.eth[3].bitrate = 2000Mbps
*.switch7.eth[4].bitrate = 2200Mbps
*.switch7.eth[5].bitrate = 2300Mbps
*.switch7.eth[6].bitrate = 1200Mbps
*.switch7.eth[7].bitrate = 1600Mbps
*.switch7.eth[8].bitrate = 1800Mbps
*.switch7.eth[9].bitrate = 1300Mbps
*.switch7.eth[10].bitrate = 2100Mbps
*.switch7.eth[11].bitrate = 1800Mbps
*.switch7.eth[12].bitrate = 1800Mbps
*.switch7.eth[13].bitrate = 2200Mbps
*.host8.eth[0].bitrate = 1000Mbps
*.switch8.eth[0].bitrate = 1000Mbps
*.switch8.eth[1].bitrate = 2300Mbps
*.switch8.eth[2].bitrate = 2000Mbps
*.switch8.eth[3].bitrate = 1800Mbps
*.switch8.eth[4].bitrate = 2100Mbps
*.switch8.eth[5].bitrate = 1900Mbps
*.switch8.eth[6].bitrate = 1500Mbps
*.switch8.eth[7].bitrate = 1800Mbps
*.switch8.eth[8].bitrate = 2100Mbps
*.switch8.eth[9].bitrate = 1400Mbps
*.switch8.eth[10].bitrate = 1900Mbps
*.switch8.eth[11].bitrate = 1300Mbps
*.switch8.eth[12].bitrate = 2000Mbps
*.switch8.eth[13].bitrate = 2300Mbps
*.switch8.eth[14].bitrate = 1300Mbps
*.switch8.eth[15].bitrate = 1500Mbps
*.host9.eth[0].bitrate = 1000Mbps
*.switch9.eth[0].bitrate = 1000Mbps
*.switch9.eth[1].bitrate = 1500Mbps
*.switch9.eth[2].bitrate = 1200Mbps
*.switch9.eth[3].bitrate = 2200Mbps
*.switch9.eth[4].bitrate = 2000Mbps
*.switch9.eth[5].bitrate = 2200Mbps
*.switch9.eth[6].bitrate = 1700Mbps
*.switch9.eth[7].bitrate = 1900Mbps
*.switch9.eth[8].bitrate = 1300Mbps
*.switch9.eth[9].bitrate = 2400Mbps
*.switch9.eth[10].bitrate = 1300Mbps
*.switch9.eth[11].bitrate = 1300Mbps
*.switch9.eth[12].bitrate = 1300Mbps
*.switch9.eth[13].bitrate = 2100Mbps
*.switch9.eth[14].bitrate = 1500Mbps
*.switch9.eth[15].bitrate = 1200Mbps
*.switch9.eth[16].bitrate = 1200Mbps
*.switch9.eth[17].bitrate = 1200Mbps
*.switch9.eth[18].bitrate = 1700Mbps
*.host10.eth[0].bitrate = 1000Mbps
*.switch10.eth[0].bitrate = 1000Mbps
*.switch10.eth[1].bitrate = 1300Mbps
*.switch10.eth[2].bitrate = 1800Mbps
*.switch10.eth[3].bitrate = 1400Mbps
*.switch10.eth[4].bitrate = 1400Mbps
*.switch10.eth[5].bitrate = 1900Mbps
*.switch10.eth[6].bitrate = 1700Mbps
*.switch10.eth[7].bitrate = 2200Mbps
*.switch10.eth[8].bitrate = 1800Mbps
*.switch10.eth[9].bitrate = 1600Mbps
*.switch10.eth[10].bitrate = 1200Mbps
*.switch10.eth[11].bitrate = 1600Mbps
*.switch10.eth[12].bitrate = 2100Mbps
*.switch10.eth[13].bitrate = 1400Mbps
*.switch10.eth[14].bitrate = 2100Mbps
*.switch10.eth[15].bitrate = 1900Mbps
*.switch10.eth[16].bitrate = 2000Mbps
*.switch10.eth[17].bitrate = 1400Mbps
*.switch10.eth[18].bitrate = 1400Mbps
*.switch10.eth[19].bitrate = 2300Mbps
*.switch10.eth[20].bitrate = 2200Mbps
*.switch10.eth[21].bitrate = 2000Mbps
*.switch10.eth[22].bitrate = 1300Mbps
*.switch10.eth[23].bitrate = 1300Mbps
*.switch10.eth[24].bitrate = 2000Mbps
*.switch10.eth[25].bitrate = 1700Mbps
*.switch10.eth[26].bitrate = 1700Mbps
*.switch10.eth[27].bitrate = 1700Mbps
*.host11.eth[0].bitrate = 1000Mbps
*.switch11.eth[0].bitrate = 1000Mbps
*.switch11.eth[1].bitrate = 1500Mbps
*.switch11.eth[2].bitrate = 1200Mbps
*.switch11.eth[3].bitrate = 1500Mbps
*.switch11.eth[4].bitrate = 1800Mbps
*.switch11.eth[5].bitrate = 2300Mbps
*.switch11.eth[6].bitrate = 1700Mbps
*.switch11.eth[7].bitrate = 1600Mbps
*.switch11.eth[8].bitrate = 2300Mbps
*.switch11.eth[9].bitrate = 1400Mbps
*.switch11.eth[10].bitrate = 1800Mbps
*.switch11.eth[11].bitrate = 1900Mbps
*.switch11.eth[12].bitrate = 1500Mbps
*.switch11.eth[13].bitrate = 1300Mbps
*.switch11.eth[14].bitrate = 1600Mbps
*.switch11.eth[15].bitrate = 1400Mbps
*.switch11.eth[16].bitrate = 1600Mbps
*.switch11.eth[17].bitrate = 1500Mbps
*.switch11.eth[18].bitrate = 1600Mbps
*.switch11.eth[19].bitrate = 1900Mbps
*.switch11.eth[20].bitrate = 1700Mbps
*.switch11.eth[21].bitrate = 1600Mbps
*.host12.eth[0].bitrate = 1000Mbps
*.switch12.eth[0].bitrate = 1000Mbps
*.switch12.eth[1].bitrate = 1200Mbps
*.switch12.eth[2].bitrate = 1700Mbps
*.switch12.eth[3].bitrate = 2400Mbps
*.switch12.eth[4].bitrate = 1900Mbps
*.switch12.eth[5].bitrate = 1600Mbps
*.switch12.eth[6].bitrate = 1800Mbps
*.switch12.eth[7].bitrate = 1500Mbps
*.switch12.eth[8].bitrate = 1700Mbps
*.switch12.eth[9].bitrate = 1900Mbps
*.switch12.eth[10].bitrate = 1600Mbps
*.switch12.eth[11].bitrate = 1500Mbps
*.switch12.eth[12].bitrate = 1700Mbps
*.switch12.eth[13].bitrate = 1600Mbps
*.host13.eth[0].bitrate = 1000Mbps
*.switch13.eth[0].bitrate = 1000Mbps
*.switch13.eth[1].bitrate = 1300Mbps
*.switch13.eth[2].bitrate = 1800Mbps
*.switch13.eth[3].bitrate = 1200Mbps
*.switch13.eth[4].bitrate = 2200Mbps
*.switch13.eth[5].bitrate = 1200Mbps
*.switch13.eth[6].bitrate = 1300Mbps
*.switch13.eth[7].bitrate = 2000Mbps
*.switch13.eth[8].bitrate = 2000Mbps
*.switch13.eth[9].bitrate = 1600Mbps
*.switch13.eth[10].bitrate = 1600Mbps
*.switch13.eth[11].bitrate = 1400Mbps
*.switch13.eth[12].bitrate = 1400Mbps
*.switch13.eth[13].bitrate = 1700Mbps
*.switch13.eth[14].bitrate = 2400Mbps
*.switch13.eth[15].bitrate = 1800Mbps
*.switch13.eth[16].bitrate = 1300Mbps
*.switch13.eth[17].bitrate = 1200Mbps
*.switch13.eth[18].bitrate = 1300Mbps
*.switch13.eth[19].bitrate = 1700Mbps
*.switch13.eth[20].bitrate = 1500Mbps
*.switch13.eth[21].bitrate = 2100Mbps
*.switch13.eth[22].bitrate = 2300Mbps
*.switch13.eth[23].bitrate = 1800Mbps
*.switch13.eth[24].bitrate = 1700Mbps
*.switch13.eth[25].bitrate = 1400Mbps
*.switch13.eth[26].bitrate = 2200Mbps
*.host14.eth[0].bitrate = 1000Mbps
*.switch14.eth[0].bitrate = 1000Mbps
*.switch14.eth[1].bitrate = 1200Mbps
*.switch14.eth[2].bitrate = 1400Mbps
*.switch14.eth[3].bitrate = 1300Mbps
*.switch14.eth[4].bitrate = 1600Mbps
*.switch14.eth[5].bitrate = 1400Mbps
*.switch14.eth[6].bitrate = 1400Mbps
*.switch14.eth[7].bitrate = 2100Mbps
*.switch14.eth[8].bitrate = 1400Mbps
*.switch14.eth[9].bitrate = 1200Mbps
*.switch14.eth[10].bitrate = 2000Mbps
*.switch14.eth[11].bitrate = 2200Mbps
*.switch14.eth[12].bitrate = 2300Mbps
*.switch14.eth[13].bitrate = 1800Mbps
*.switch14.eth[14].bitrate = 2000Mbps
*.switch14.eth[15].bitrate = 1900Mbps
*.switch14.eth[16].bitrate = 1800Mbps
*.host15.eth[0].bitrate = 1000Mbps
*.switch15.eth[0].bitrate = 1000Mbps
*.switch15.eth[1].bitrate = 1200Mbps
*.switch15.eth[2].bitrate = 1700Mbps
*.switch15.eth[3].bitrate = 1500Mbps
*.switch15.eth[4].bitrate = 1400Mbps
*.switch15.eth[5].bitrate = 1300Mbps
*.switch15.eth[6].bitrate = 1400Mbps
*.switch15.eth[7].bitrate = 2300Mbps
*.switch15.eth[8].bitrate = 2300Mbps
*.switch15.eth[9].bitrate = 1700Mbps
*.switch15.eth[10].bitrate = 1800Mbps
*.switch15.eth[11].bitrate = 1600Mbps
*.switch15.eth[12].bitrate = 2400Mbps
*.switch15.eth[13].bitrate = 2000Mbps
*.switch15.eth[14].bitrate = 1200Mbps
*.switch15.eth[15].bitrate = 1700Mbps
*.switch15.eth[16].bitrate = 1700Mbps
*.switch15.eth[17].bitrate = 2400Mbps
*.switch15.eth[18].bitrate = 1200Mbps
*.switch15.eth[19].bitrate = 1700Mbps
*.switch15.eth[20].bitrate = 2200Mbps
*.host16.eth[0].bitrate = 1000Mbps
*.switch16.eth[0].bitrate = 1000Mbps
*.switch16.eth[1].bitrate = 2100Mbps
*.switch16.eth[2].bitrate = 1300Mbps
*.switch16.eth[3].bitrate = 1900Mbps
*.switch16.eth[4].bitrate = 2000Mbps
*.switch16.eth[5].bitrate = 2300Mbps
*.switch16.eth[6].bitrate = 1600Mbps
*.switch16.eth[7].bitrate = 1800Mbps
*.switch16.eth[8].bitrate = 1800Mbps
*.switch16.eth[9].bitrate = 2400Mbps
*.switch16.eth[10].bitrate = 1700Mbps
*.switch16.eth[11].bitrate = 1700Mbps
*.switch16.eth[12].bitrate = 1800Mbps
*.host17.eth[0].bitrate = 1000Mbps
*.switch17.eth[0].bitrate = 1000Mbps
*.switch17.eth[1].bitrate = 1200Mbps
*.switch17.eth[2].bitrate = 1500Mbps
*.switch17.eth[3].bitrate = 2400Mbps
*.switch17.eth[4].bitrate = 1800Mbps
*.switch17.eth[5].bitrate = 1500Mbps
*.switch17.eth[6].bitrate = 1700Mbps
*.switch17.eth[7].bitrate = 2000Mbps
*.switch17.eth[8].bitrate = 2400Mbps
*.switch17.eth[9].bitrate = 1600Mbps
*.switch17.eth[10].bitrate = 1800Mbps
*.switch17.eth[11].bitrate = 1500Mbps
*.switch17.eth[12].bitrate = 1700Mbps
*.switch17.eth[13].bitrate = 2000Mbps
*.switch17.eth[14].bitrate = 2400Mbps
*.switch17.eth[15].bitrate = 1600Mbps
*.switch17.eth[16].bitrate = 2200Mbps
*.switch17.eth[17].bitrate = 2300Mbps
*.switch17.eth[18].bitrate = 1700Mbps
*.switch17.eth[19].bitrate = 1700Mbps
*.switch17.eth[20].bitrate = 1600Mbps
*.switch17.eth[21].bitrate = 1800Mbps
*.switch17.eth[22].bitrate = 1700Mbps
*.switch17.eth[23].bitrate = 1800Mbps
*.switch17.eth[24].bitrate = 2300Mbps
*.switch17.eth[25].bitrate = 2100Mbps
*.host18.eth[0].bitrate = 1000Mbps
*.switch18.eth[0].bitrate = 1000Mbps
*.switch18.eth[1].bitrate = 1700Mbps
*.switch18.eth[2].bitrate = 2100Mbps
*.switch18.eth[3].bitrate = 1700Mbps
*.switch18.eth[4].bitrate = 1800Mbps
*.switch18.eth[5].bitrate = 2100Mbps
*.switch18.eth[6].bitrate = 1300Mbps
*.switch18.eth[7].bitrate = 2200Mbps
*.switch18.eth[8].bitrate = 1600Mbps
*.switch18.eth[9].bitrate = 1600Mbps
*.switch18.eth[10].bitrate = 1400Mbps
*.switch18.eth[11].bitrate = 1900Mbps
*.switch18.eth[12].bitrate = 2300Mbps
*.switch18.eth[13].bitrate = 2300Mbps
*.switch18.eth[14].bitrate = 2100Mbps
*.switch18.eth[15].bitrate = 1300Mbps
*.switch18.eth[16].bitrate = 1600Mbps
*.switch18.eth[17].bitrate = 2200Mbps
*.host19.eth[0].bitrate = 1000Mbps
*.switch19.eth[0].bitrate = 1000Mbps
*.switch19.eth[1].bitrate = 2100Mbps
*.switch19.eth[2].bitrate = 1600Mbps
*.switch19.eth[3].bitrate = 2000Mbps
*.switch19.eth[4].bitrate = 2000Mbps
*.switch19.eth[5].bitrate = 1200Mbps
*.switch19.eth[6].bitrate = 2100Mbps
*.switch19.eth[7].bitrate = 1500Mbps
*.host0.numApps = 10
*.host0.app[0].typename = "UdpSinkApp"
*.host0.app[0].io.localPort = 1000
*.host0.app[1].typename = "UdpSinkApp"
*.host0.app[1].io.localPort = 1001
*.host0.app[2].typename = "UdpSinkApp"
*.host0.app[2].io.localPort = 1002
*.host0.app[3].typename = "UdpBasicApp"
*.host0.app[3].destAddresses = "host16"
*.host0.app[3].source.packetNameFormat = "%M-%m-%c"
*.host0.app[3].source.displayStringTextFormat = "sent %p pk (%l)"
*.host0.app[3].messageLength = 16B
*.host0.app[3].sendInterval = 1ms
*.host0.app[3].startTime = 26ms
*.host0.app[3].stopTime = 28ms
*.host0.app[3].display-name = "type2_17"
*.host0.app[3].destPort = 1001
*.host0.app[4].typename = "UdpBasicApp"
*.host0.app[4].destAddresses = "host16"
*.host0.app[4].source.packetNameFormat = "%M-%m-%c"
*.host0.app[4].source.displayStringTextFormat = "sent %p pk (%l)"
*.host0.app[4].messageLength = 16B
*.host0.app[4].sendInterval = 1ms
*.host0.app[4].startTime = 33ms
*.host0.app[4].stopTime = 36ms
*.host0.app[4].display-name = "type2_17"
*.host0.app[4].destPort = 1001
*.host0.app[5].typename = "UdpBasicApp"
*.host0.app[5].destAddresses = "host16"
*.host0.app[5].source.packetNameFormat = "%M-%m-%c"
*.host0.app[5].source.displayStringTextFormat = "sent %p pk (%l)"
*.host0.app[5].messageLength = 16B
*.host0.app[5].sendInterval = 1ms
*.host0.app[5].startTime = 37ms
*.host0.app[5].stopTime = 53ms
*.host0.app[5].display-name = "type2_17"
*.host0.app[5].destPort = 1001
*.host0.app[6].typename = "UdpBasicApp"
*.host0.app[6].destAddresses = "host16"
*.host0.app[6].source.packetNameFormat = "%M-%m-%c"
*.host0.app[6].source.displayStringTextFormat = "sent %p pk (%l)"
*.host0.app[6].messageLength = 16B
*.host0.app[6].sendInterval = 1ms
*.host0.app[6].startTime = 57ms
*.host0.app[6].stopTime = 61ms
*.host0.app[6].display-name = "type2_17"
*.host0.app[6].destPort = 1001
*.host0.app[7].typename = "UdpBasicApp"
*.host0.app[7].destAddresses = "host16"
*.host0.app[7].source.packetNameFormat = "%M-%m-%c"
*.host0.app[7].source.displayStringTextFormat = "sent %p pk (%l)"
*.host0.app[7].messageLength = 16B
*.host0.app[7].sendInterval = 1ms
*.host0.app[7].startTime = 67ms
*.host0.app[7].stopTime = 68ms
*.host0.app[7].display-name = "type2_17"
*.host0.app[7].destPort = 1001
*.host0.app[8].typename = "UdpBasicApp"
*.host0.app[8].destAddresses = "host16"
*.host0.app[8].source.packetNameFormat = "%M-%m-%c"
*.host0.app[8].source.displayStringTextFormat = "sent %p pk (%l)"
*.host0.app[8].messageLength = 16B
*.host0.app[8].sendInterval = 1ms
*.host0.app[8].startTime = 69ms
*.host0.app[8].stopTime = 71ms
*.host0.app[8].display-name = "type2_17"
*.host0.app[8].destPort = 1001
*.host0.app[9].typename = "UdpBasicApp"
*.host0.app[9].destAddresses = "host16"
*.host0.app[9].source.packetNameFormat = "%M-%m-%c"
*.host0.app[9].source.displayStringTextFormat = "sent %p pk (%l)"
*.host0.app[9].messageLength = 16B
*.host0.app[9].sendInterval = 1ms
*.host0.app[9].startTime = 79ms
*.host0.app[9].stopTime = 100ms
*.host0.app[9].display-name = "type2_17"
*.host0.app[9].destPort = 1001
*.host1.numApps = 7
*.host1.app[0].typename = "UdpSinkApp"
*.host1.app[0].io.localPort = 1000
*.host1.app[1].typename = "UdpBasicApp"
*.host1.app[1].destAddresses = "host12"
*.host1.app[1].source.packetNameFormat = "%M-%m-%c"
*.host1.app[1].source.displayStringTextFormat = "sent %p pk (%l)"
*.host1.app[1].messageLength = 23B
*.host1.app[1].sendInterval = 1ms
*.host1.app[1].startTime = 21ms
*.host1.app[1].stopTime = 27ms
*.host1.app[1].display-name = "type2_8"
*.host1.app[1].destPort = 1000
*.host1.app[2].typename = "UdpBasicApp"
*.host1.app[2].destAddresses = "host12"
*.host1.app[2].source.packetNameFormat = "%M-%m-%c"
*.host1.app[2].source.displayStringTextFormat = "sent %p pk (%l)"
*.host1.app[2].messageLength = 23B
*.host1.app[2].sendInterval = 1ms
*.host1.app[2].startTime = 44ms
*.host1.app[2].stopTime = 50ms
*.host1.app[2].display-name = "type2_8"
*.host1.app[2].destPort = 1000
*.host1.app[3].typename = "UdpBasicApp"
*.host1.app[3].destAddresses = "host12"
*.host1.app[3].source.packetNameFormat = "%M-%m-%c"
*.host1.app[3].source.displayStringTextFormat = "sent %p pk (%l)"
*.host1.app[3].messageLength = 23B
*.host1.app[3].sendInterval = 1ms
*.host1.app[3].startTime = 51ms
*.host1.app[3].stopTime = 70ms
*.host1.app[3].display-name = "type2_8"
*.host1.app[3].destPort = 1000
*.host1.app[4].typename = "UdpBasicApp"
*.host1.app[4].destAddresses = "host12"
*.host1.app[4].source.packetNameFormat = "%M-%m-%c"
*.host1.app[4].source.displayStringTextFormat = "sent %p pk (%l)"
*.host1.app[4].messageLength = 23B
*.host1.app[4].sendInterval = 1ms
*.host1.app[4].startTime = 72ms
*.host1.app[4].stopTime = 85ms
*.host1.app[4].display-name = "type2_8"
*.host1.app[4].destPort = 1000
*.host1.app[5].typename = "UdpBasicApp"
*.host1.app[5].destAddresses = "host12"
*.host1.app[5].source.packetNameFormat = "%M-%m-%c"
*.host1.app[5].source.displayStringTextFormat = "sent %p pk (%l)"
*.host1.app[5].messageLength = 23B
*.host1.app[5].sendInterval = 1ms
*.host1.app[5].startTime = 86ms
*.host1.app[5].stopTime = 89ms
*.host1.app[5].display-name = "type2_8"
*.host1.app[5].destPort = 1000
*.host1.app[6].typename = "UdpBasicApp"
*.host1.app[6].destAddresses = "host12"
*.host1.app[6].source.packetNameFormat = "%M-%m-%c"
*.host1.app[6].source.displayStringTextFormat = "sent %p pk (%l)"
*.host1.app[6].messageLength = 23B
*.host1.app[6].sendInterval = 1ms
*.host1.app[6].startTime = 95ms
*.host1.app[6].stopTime = 100ms
*.host1.app[6].display-name = "type2_8"
*.host1.app[6].destPort = 1000
*.host2.numApps = 2
*.host2.app[0].typename = "UdpSourceApp"
*.host2.app[0].io.destAddress = "host1"
*.host2.app[0].source.packetNameFormat = "%M-%m-%c"
*.host2.app[0].source.displayStringTextFormat = "sent %p pk (%l)"
*.host2.app[0].source.packetLength = 12B
*.host2.app[0].source.productionInterval = 1ms
*.host2.app[0].display-name = "type1_3"
*.host2.app[0].io.destPort = 1000
*.host2.app[1].typename = "UdpSinkApp"
*.host2.app[1].io.localPort = 1000
*.host3.numApps = 10
*.host3.app[0].typename = "UdpSinkApp"
*.host3.app[0].io.localPort = 1000
*.host3.app[1].typename = "UdpSourceApp"
*.host3.app[1].io.destAddress = "host8"
*.host3.app[1].source.packetNameFormat = "%M-%m-%c"
*.host3.app[1].source.displayStringTextFormat = "sent %p pk (%l)"
*.host3.app[1].source.packetLength = 18B
*.host3.app[1].source.productionInterval = 1ms
*.host3.app[1].display-name = "type1_4"
*.host3.app[1].io.destPort = 1000
*.host3.app[2].typename = "UdpBasicApp"
*.host3.app[2].destAddresses = "host6"
*.host3.app[2].source.packetNameFormat = "%M-%m-%c"
*.host3.app[2].source.displayStringTextFormat = "sent %p pk (%l)"
*.host3.app[2].messageLength = 14B
*.host3.app[2].sendInterval = 1ms
*.host3.app[2].startTime = 2ms
*.host3.app[2].stopTime = 5ms
*.host3.app[2].display-name = "type2_0"
*.host3.app[2].destPort = 1000
*.host3.app[3].typename = "UdpBasicApp"
*.host3.app[3].destAddresses = "host6"
*.host3.app[3].source.packetNameFormat = "%M-%m-%c"
*.host3.app[3].source.displayStringTextFormat = "sent %p pk (%l)"
*.host3.app[3].messageLength = 14B
*.host3.app[3].sendInterval = 1ms
*.host3.app[3].startTime = 16ms
*.host3.app[3].stopTime = 36ms
*.host3.app[3].display-name = "type2_0"
*.host3.app[3].destPort = 1000
*.host3.app[4].typename = "UdpBasicApp"
*.host3.app[4].destAddresses = "host6"
*.host3.app[4].source.packetNameFormat = "%M-%m-%c"
*.host3.app[4].source.displayStringTextFormat = "sent %p pk (%l)"
*.host3.app[4].messageLength = 14B
*.host3.app[4].sendInterval = 1ms
*.host3.app[4].startTime = 48ms
*.host3.app[4].stopTime = 62ms
*.host3.app[4].display-name = "type2_0"
*.host3.app[4].destPort = 1000
*.host3.app[5].typename = "UdpBasicApp"
*.host3.app[5].destAddresses = "host6"
*.host3.app[5].source.packetNameFormat = "%M-%m-%c"
*.host3.app[5].source.displayStringTextFormat = "sent %p pk (%l)"
*.host3.app[5].messageLength = 14B
*.host3.app[5].sendInterval = 1ms
*.host3.app[5].startTime = 64ms
*.host3.app[5].stopTime = 66ms
*.host3.app[5].display-name = "type2_0"
*.host3.app[5].destPort = 1000
*.host3.app[6].typename = "UdpBasicApp"
*.host3.app[6].destAddresses = "host6"
*.host3.app[6].source.packetNameFormat = "%M-%m-%c"
*.host3.app[6].source.displayStringTextFormat = "sent %p pk (%l)"
*.host3.app[6].messageLength = 14B
*.host3.app[6].sendInterval = 1ms
*.host3.app[6].startTime = 75ms
*.host3.app[6].stopTime = 76ms
*.host3.app[6].display-name = "type2_0"
*.host3.app[6].destPort = 1000
*.host3.app[7].typename = "UdpBasicApp"
*.host3.app[7].destAddresses = "host6"
*.host3.app[7].source.packetNameFormat = "%M-%m-%c"
*.host3.app[7].source.displayStringTextFormat = "sent %p pk (%l)"
*.host3.app[7].messageLength = 14B
*.host3.app[7].sendInterval = 1ms
*.host3.app[7].startTime = 79ms
*.host3.app[7].stopTime = 83ms
*.host3.app[7].display-name = "type2_0"
*.host3.app[7].destPort = 1000
*.host3.app[8].typename = "UdpBasicApp"
*.host3.app[8].destAddresses = "host6"
*.host3.app[8].source.packetNameFormat = "%M-%m-%c"
*.host3.app[8].source.displayStringTextFormat = "sent %p pk (%l)"
*.host3.app[8].messageLength = 14B
*.host3.app[8].sendInterval = 1ms
*.host3.app[8].startTime = 92ms
*.host3.app[8].stopTime = 100ms
*.host3.app[8].display-name = "type2_0"
*.host3.app[8].destPort = 1000
*.host3.app[9].typename = "UdpSinkApp"
*.host3.app[9].io.localPort = 1001
*.host4.numApps = 2
*.host4.app[0].typename = "UdpSinkApp"
*.host4.app[0].io.localPort = 1000
*.host4.app[1].typename = "UdpSinkApp"
*.host4.app[1].io.localPort = 1001
*.host5.numApps = 12
*.host5.app[0].typename = "UdpBasicApp"
*.host5.app[0].destAddresses = "host6"
*.host5.app[0].source.packetNameFormat = "%M-%m-%c"
*.host5.app[0].source.displayStringTextFormat = "sent %p pk (%l)"
*.host5.app[0].messageLength = 13B
*.host5.app[0].sendInterval = 1ms
*.host5.app[0].startTime = 5ms
*.host5.app[0].stopTime = 9ms
*.host5.app[0].display-name = "type2_3"
*.host5.app[0].destPort = 1001
*.host5.app[1].typename = "UdpBasicApp"
*.host5.app[1].destAddresses = "host6"
*.host5.app[1].source.packetNameFormat = "%M-%m-%c"
*.host5.app[1].source.displayStringTextFormat = "sent %p pk (%l)"
*.host5.app[1].messageLength = 13B
*.host5.app[1].sendInterval = 1ms
*.host5.app[1].startTime = 14ms
*.host5.app[1].stopTime = 26ms
*.host5.app[1].display-name = "type2_3"
*.host5.app[1].destPort = 1001
*.host5.app[2].typename = "UdpBasicApp"
*.host5.app[2].destAddresses = "host6"
*.host5.app[2].source.packetNameFormat = "%M-%m-%c"
*.host5.app[2].source.displayStringTextFormat = "sent %p pk (%l)"
*.host5.app[2].messageLength = 13B
*.host5.app[2].sendInterval = 1ms
*.host5.app[2].startTime = 58ms
*.host5.app[2].stopTime = 60ms
*.host5.app[2].display-name = "type2_3"
*.host5.app[2].destPort = 1001
*.host5.app[3].typename = "UdpBasicApp"
*.host5.app[3].destAddresses = "host6"
*.host5.app[3].source.packetNameFormat = "%M-%m-%c"
*.host5.app[3].source.displayStringTextFormat = "sent %p pk (%l)"
*.host5.app[3].messageLength = 13B
*.host5.app[3].sendInterval = 1ms
*.host5.app[3].startTime = 61ms
*.host5.app[3].stopTime = 63ms
*.host5.app[3].display-name = "type2_3"
*.host5.app[3].destPort = 1001
*.host5.app[4].typename = "UdpBasicApp"
*.host5.app[4].destAddresses = "host6"
*.host5.app[4].source.packetNameFormat = "%M-%m-%c"
*.host5.app[4].source.displayStringTextFormat = "sent %p pk (%l)"
*.host5.app[4].messageLength = 13B
*.host5.app[4].sendInterval = 1ms
*.host5.app[4].startTime = 72ms
*.host5.app[4].stopTime = 73ms
*.host5.app[4].display-name = "type2_3"
*.host5.app[4].destPort = 1001
*.host5.app[5].typename = "UdpBasicApp"
*.host5.app[5].destAddresses = "host6"
*.host5.app[5].source.packetNameFormat = "%M-%m-%c"
*.host5.app[5].source.displayStringTextFormat = "sent %p pk (%l)"
*.host5.app[5].messageLength = 13B
*.host5.app[5].sendInterval = 1ms
*.host5.app[5].startTime = 82ms
*.host5.app[5].stopTime = 88ms
*.host5.app[5].display-name = "type2_3"
*.host5.app[5].destPort = 1001
*.host5.app[6].typename = "UdpBasicApp"
*.host5.app[6].destAddresses = "host6"
*.host5.app[6].source.packetNameFormat = "%M-%m-%c"
*.host5.app[6].source.displayStringTextFormat = "sent %p pk (%l)"
*.host5.app[6].messageLength = 13B
*.host5.app[6].sendInterval = 1ms
*.host5.app[6].startTime = 96ms
*.host5.app[6].stopTime = 98ms
*.host5.app[6].display-name = "type2_3"
*.host5.app[6].destPort = 1001
*.host5.app[7].typename = "UdpBasicApp"
*.host5.app[7].destAddresses = "host18"
*.host5.app[7].source.packetNameFormat = "%M-%m-%c"
*.host5.app[7].source.displayStringTextFormat = "sent %p pk (%l)"
*.host5.app[7].messageLength = 24B
*.host5.app[7].sendInterval = 1ms
*.host5.app[7].startTime = 4ms
*.host5.app[7].stopTime = 15ms
*.host5.app[7].display-name = "type2_7"
*.host5.app[7].destPort = 1000
*.host5.app[8].typename = "UdpBasicApp"
*.host5.app[8].destAddresses = "host18"
*.host5.app[8].source.packetNameFormat = "%M-%m-%c"
*.host5.app[8].source.displayStringTextFormat = "sent %p pk (%l)"
*.host5.app[8].messageLength = 24B
*.host5.app[8].sendInterval = 1ms
*.host5.app[8].startTime = 16ms
*.host5.app[8].stopTime = 17ms
*.host5.app[8].display-name = "type2_7"
*.host5.app[8].destPort = 1000
*.host5.app[9].typename = "UdpBasicApp"
*.host5.app[9].destAddresses = "host18"
*.host5.app[9].source.packetNameFormat = "%M-%m-%c"
*.host5.app[9].source.displayStringTextFormat = "sent %p pk (%l)"
*.host5.app[9].messageLength = 24B
*.host5.app[9].sendInterval = 1ms
*.host5.app[9].startTime = 30ms
*.host5.app[9].stopTime = 37ms
*.host5.app[9].display-name = "type2_7"
*.host5.app[9].destPort = 1000
*.host5.app[10].typename = "UdpBasicApp"
*.host5.app[10].destAddresses = "host18"
*.host5.app[10].source.packetNameFormat = "%M-%m-%c"
*.host5.app[10].source.displayStringTextFormat = "sent %p pk (%l)"
*.host5.app[10].messageLength = 24B
*.host5.app[10].sendInterval = 1ms
*.host5.app[10].startTime = 47ms
*.host5.app[10].stopTime = 65ms
*.host5.app[10].display-name = "type2_7"
*.host5.app[10].destPort = 1000
*.host5.app[11].typename = "UdpBasicApp"
*.host5.app[11].destAddresses = "host18"
*.host5.app[11].source.packetNameFormat = "%M-%m-%c"
*.host5.app[11].source.displayStringTextFormat = "sent %p pk (%l)"
*.host5.app[11].messageLength = 24B
*.host5.app[11].sendInterval = 1ms
*.host5.app[11].startTime = 73ms
*.host5.app[11].stopTime = 89ms
*.host5.app[11].display-name = "type2_7"
*.host5.app[11].destPort = 1000
*.host6.numApps = 10
*.host6.app[0].typename = "UdpSourceApp"
*.host6.app[0].io.destAddress = "host0"
*.host6.app[0].source.packetNameFormat = "%M-%m-%c"
*.host6.app[0].source.displayStringTextFormat = "sent %p pk (%l)"
*.host6.app[0].source.packetLength = 16B
*.host6.app[0].source.productionInterval = 1ms
*.host6.app[0].display-name = "type1_1"
*.host6.app[0].io.destPort = 1000
*.host6.app[1].typename = "UdpSinkApp"