[General]
network = TSN_multipath
sim-time-limit = 10ms
*.macForwardingTableConfigurator.typename = ""
*.*.hasStreamRedundancy = true
*.*.bridging.streamRelay.typename = "StreamRelayLayer"
*.*.bridging.streamCoder.typename = "StreamCoderLayer"
*.streamRedundancyConfigurator.typename = "StreamRedundancyConfigurator"
*.host0.eth[0].bitrate = 1000Mbps
*.switch0.eth[0].bitrate = 1000Mbps
*.switch0.eth[1].bitrate = 2100Mbps
*.switch0.eth[2].bitrate = 1200Mbps
*.switch0.eth[3].bitrate = 1500Mbps
*.switch0.eth[4].bitrate = 1300Mbps
*.host1.eth[0].bitrate = 1000Mbps
*.switch1.eth[0].bitrate = 1000Mbps
*.switch1.eth[1].bitrate = 2100Mbps
*.switch1.eth[2].bitrate = 1500Mbps
*.switch1.eth[3].bitrate = 1800Mbps
*.switch1.eth[4].bitrate = 1900Mbps
*.host2.eth[0].bitrate = 1000Mbps
*.switch2.eth[0].bitrate = 1000Mbps
*.switch2.eth[1].bitrate = 2300Mbps
*.switch2.eth[2].bitrate = 1600Mbps
*.switch2.eth[3].bitrate = 1600Mbps
*.host3.eth[0].bitrate = 1000Mbps
*.switch3.eth[0].bitrate = 1000Mbps
*.switch3.eth[1].bitrate = 1200Mbps
*.switch3.eth[2].bitrate = 2300Mbps
*.switch3.eth[3].bitrate = 1300Mbps
*.switch3.eth[4].bitrate = 1900Mbps
*.switch3.eth[5].bitrate = 1600Mbps
*.host4.eth[0].bitrate = 1000Mbps
*.switch4.eth[0].bitrate = 1000Mbps
*.switch4.eth[1].bitrate = 1800Mbps
*.switch4.eth[2].bitrate = 1600Mbps
*.host0.numApps = 9
*.host0.app[0].typename = "UdpSinkApp"
*.host0.app[0].io.localPort = 1000
*.host0.app[1].typename = "UdpBasicApp"
*.host0.app[1].destAddresses = "host1"
*.host0.app[1].source.packetNameFormat = "%M-%m-%c"
*.host0.app[1].source.displayStringTextFormat = "sent %p pk (%l)"
*.host0.app[1].messageLength = 12B
*.host0.app[1].sendInterval = 1ms
*.host0.app[1].startTime = 100us
*.host0.app[1].stopTime = 400us
*.host0.app[1].display-name = "type2_1"
*.host0.app[1].destPort = 1002
*.host0.app[2].typename = "UdpBasicApp"
*.host0.app[2].destAddresses = "host1"
*.host0.app[2].source.packetNameFormat = "%M-%m-%c"
*.host0.app[2].source.displayStringTextFormat = "sent %p pk (%l)"
*.host0.app[2].messageLength = 12B
*.host0.app[2].sendInterval = 1ms
*.host0.app[2].startTime = 900us
*.host0.app[2].stopTime = 1100us
*.host0.app[2].display-name = "type2_1"
*.host0.app[2].destPort = 1002
*.host0.app[3].typename = "UdpBasicApp"
*.host0.app[3].destAddresses = "host1"
*.host0.app[3].source.packetNameFormat = "%M-%m-%c"
*.host0.app[3].source.displayStringTextFormat = "sent %p pk (%l)"
*.host0.app[3].messageLength = 12B
*.host0.app[3].sendInterval = 1ms
*.host0.app[3].startTime = 2800us
*.host0.app[3].stopTime = 3000us
*.host0.app[3].display-name = "type2_1"
*.host0.app[3].destPort = 1002
*.host0.app[4].typename = "UdpBasicApp"
*.host0.app[4].destAddresses = "host1"
*.host0.app[4].source.packetNameFormat = "%M-%m-%c"
*.host0.app[4].source.displayStringTextFormat = "sent %p pk (%l)"
*.host0.app[4].messageLength = 12B
*.host0.app[4].sendInterval = 1ms
*.host0.app[4].startTime = 3100us
*.host0.app[4].stopTime = 4400us
*.host0.app[4].display-name = "type2_1"
*.host0.app[4].destPort = 1002
*.host0.app[5].typename = "UdpBasicApp"
*.host0.app[5].destAddresses = "host1"
*.host0.app[5].source.packetNameFormat = "%M-%m-%c"
*.host0.app[5].source.displayStringTextFormat = "sent %p pk (%l)"
*.host0.app[5].messageLength = 12B
*.host0.app[5].sendInterval = 1ms
*.host0.app[5].startTime = 5900us
*.host0.app[5].stopTime = 7600us
*.host0.app[5].display-name = "type2_1"
*.host0.app[5].destPort = 1002
*.host0.app[6].typename = "UdpBasicApp"
*.host0.app[6].destAddresses = "host1"
*.host0.app[6].source.packetNameFormat = "%M-%m-%c"
*.host0.app[6].source.displayStringTextFormat = "sent %p pk (%l)"
*.host0.app[6].messageLength = 12B
*.host0.app[6].sendInterval = 1ms
*.host0.app[6].startTime = 7800us
*.host0.app[6].stopTime = 9100us
*.host0.app[6].display-name = "type2_1"
*.host0.app[6].destPort = 1002
*.host0.app[7].typename = "UdpBasicApp"
*.host0.app[7].destAddresses = "host1"
*.host0.app[7].source.packetNameFormat = "%M-%m-%c"
*.host0.app[7].source.displayStringTextFormat = "sent %p pk (%l)"
*.host0.app[7].messageLength = 12B
*.host0.app[7].sendInterval = 1ms
*.host0.app[7].startTime = 9800us
*.host0.app[7].stopTime = 10000us
*.host0.app[7].display-name = "type2_1"
*.host0.app[7].destPort = 1002
*.host0.app[8].typename = "UdpSinkApp"
*.host0.app[8].io.localPort = 1001
*.host1.numApps = 10
*.host1.app[0].typename = "UdpSinkApp"
*.host1.app[0].io.localPort = 1000
*.host1.app[1].typename = "UdpSinkApp"
*.host1.app[1].io.localPort = 1001
*.host1.app[2].typename = "UdpBasicApp"
*.host1.app[2].destAddresses = "host0"
*.host1.app[2].source.packetNameFormat = "%M-%m-%c"
*.host1.app[2].source.displayStringTextFormat = "sent %p pk (%l)"
*.host1.app[2].messageLength = 17B
*.host1.app[2].sendInterval = 1ms
*.host1.app[2].startTime = 200us
*.host1.app[2].stopTime = 600us
*.host1.app[2].display-name = "type2_0"
*.host1.app[2].destPort = 1000
*.host1.app[3].typename = "UdpBasicApp"
*.host1.app[3].destAddresses = "host0"
*.host1.app[3].source.packetNameFormat = "%M-%m-%c"
*.host1.app[3].source.displayStringTextFormat = "sent %p pk (%l)"
*.host1.app[3].messageLength = 17B
*.host1.app[3].sendInterval = 1ms
*.host1.app[3].startTime = 700us
*.host1.app[3].stopTime = 1400us
*.host1.app[3].display-name = "type2_0"
*.host1.app[3].destPort = 1000
*.host1.app[4].typename = "UdpBasicApp"
*.host1.app[4].destAddresses = "host0"
*.host1.app[4].source.packetNameFormat = "%M-%m-%c"
*.host1.app[4].source.displayStringTextFormat = "sent %p pk (%l)"
*.host1.app[4].messageLength = 17B
*.host1.app[4].sendInterval = 1ms
*.host1.app[4].startTime = 2600us
*.host1.app[4].stopTime = 3900us
*.host1.app[4].display-name = "type2_0"
*.host1.app[4].destPort = 1000
*.host1.app[5].typename = "UdpBasicApp"
*.host1.app[5].destAddresses = "host0"
*.host1.app[5].source.packetNameFormat = "%M-%m-%c"
*.host1.app[5].source.displayStringTextFormat = "sent %p pk (%l)"
*.host1.app[5].messageLength = 17B
*.host1.app[5].sendInterval = 1ms
*.host1.app[5].startTime = 4500us
*.host1.app[5].stopTime = 5400us
*.host1.app[5].display-name = "type2_0"
*.host1.app[5].destPort = 1000
*.host1.app[6].typename = "UdpBasicApp"
*.host1.app[6].destAddresses = "host0"
*.host1.app[6].source.packetNameFormat = "%M-%m-%c"
*.host1.app[6].source.displayStringTextFormat = "sent %p pk (%l)"
*.host1.app[6].messageLength = 17B
*.host1.app[6].sendInterval = 1ms
*.host1.app[6].startTime = 6500us
*.host1.app[6].stopTime = 6900us
*.host1.app[6].display-name = "type2_0"
*.host1.app[6].destPort = 1000
*.host1.app[7].typename = "UdpBasicApp"
*.host1.app[7].destAddresses = "host0"
*.host1.app[7].source.packetNameFormat = "%M-%m-%c"
*.host1.app[7].source.displayStringTextFormat = "sent %p pk (%l)"
*.host1.app[7].messageLength = 17B
*.host1.app[7].sendInterval = 1ms
*.host1.app[7].startTime = 7800us
*.host1.app[7].stopTime = 7900us
*.host1.app[7].display-name = "type2_0"
*.host1.app[7].destPort = 1000
*.host1.app[8].typename = "UdpBasicApp"
*.host1.app[8].destAddresses = "host0"
*.host1.app[8].source.packetNameFormat = "%M-%m-%c"
*.host1.app[8].source.displayStringTextFormat = "sent %p pk (%l)"
*.host1.app[8].messageLength = 17B
*.host1.app[8].sendInterval = 1ms
*.host1.app[8].startTime = 9700us
*.host1.app[8].stopTime = 10000us
*.host1.app[8].display-name = "type2_0"
*.host1.app[8].destPort = 1000
*.host1.app[9].typename = "UdpSinkApp"
*.host1.app[9].io.localPort = 1002
*.host2.numApps = 12
*.host2.app[0].typename = "UdpSourceApp"
*.host2.app[0].io.destAddress = "host1"
*.host2.app[0].source.packetNameFormat = "%M-%m-%c"
*.host2.app[0].source.displayStringTextFormat = "sent %p pk (%l)"
*.host2.app[0].source.packetLength = 17B
*.host2.app[0].source.productionInterval = 1ms
*.host2.app[0].display-name = "type1_0"
*.host2.app[0].io.destPort = 1000
*.host2.app[1].typename = "UdpSourceApp"
*.host2.app[1].io.destAddress = "host1"
*.host2.app[1].source.packetNameFormat = "%M-%m-%c"
*.host2.app[1].source.displayStringTextFormat = "sent %p pk (%l)"
*.host2.app[1].source.packetLength = 18B
*.host2.app[1].source.productionInterval = 1ms
*.host2.app[1].display-name = "type1_1"
*.host2.app[1].io.destPort = 1001
*.host2.app[2].typename = "UdpSourceApp"
*.host2.app[2].io.destAddress = "host3"
*.host2.app[2].source.packetNameFormat = "%M-%m-%c"
*.host2.app[2].source.displayStringTextFormat = "sent %p pk (%l)"
*.host2.app[2].source.packetLength = 23B
*.host2.app[2].source.productionInterval = 1ms
*.host2.app[2].display-name = "type1_2"
*.host2.app[2].io.destPort = 1000
*.host2.app[3].typename = "UdpBasicApp"
*.host2.app[3].destAddresses = "host0"
*.host2.app[3].source.packetNameFormat = "%M-%m-%c"
*.host2.app[3].source.displayStringTextFormat = "sent %p pk (%l)"
*.host2.app[3].messageLength = 19B
*.host2.app[3].sendInterval = 1ms
*.host2.app[3].startTime = 200us
*.host2.app[3].stopTime = 1300us
*.host2.app[3].display-name = "type2_2"
*.host2.app[3].destPort = 1001
*.host2.app[4].typename = "UdpBasicApp"
*.host2.app[4].destAddresses = "host0"
*.host2.app[4].source.packetNameFormat = "%M-%m-%c"
*.host2.app[4].source.displayStringTextFormat = "sent %p pk (%l)"
*.host2.app[4].messageLength = 19B
*.host2.app[4].sendInterval = 1ms
*.host2.app[4].startTime = 1700us
*.host2.app[4].stopTime = 1900us
*.host2.app[4].display-name = "type2_2"
*.host2.app[4].destPort = 1001
*.host2.app[5].typename = "UdpBasicApp"
*.host2.app[5].destAddresses = "host0"
*.host2.app[5].source.packetNameFormat = "%M-%m-%c"
*.host2.app[5].source.displayStringTextFormat = "sent %p pk (%l)"
*.host2.app[5].messageLength = 19B
*.host2.app[5].sendInterval = 1ms
*.host2.app[5].startTime = 2100us
*.host2.app[5].stopTime = 2800us
*.host2.app[5].display-name = "type2_2"
*.host2.app[5].destPort = 1001
*.host2.app[6].typename = "UdpBasicApp"
*.host2.app[6].destAddresses = "host0"
*.host2.app[6].source.packetNameFormat = "%M-%m-%c"
*.host2.app[6].source.displayStringTextFormat = "sent %p pk (%l)"
*.host2.app[6].messageLength = 19B
*.host2.app[6].sendInterval = 1ms
*.host2.app[6].startTime = 3500us
*.host2.app[6].stopTime = 3800us
*.host2.app[6].display-name = "type2_2"
*.host2.app[6].destPort = 1001
*.host2.app[7].typename = "UdpBasicApp"
*.host2.app[7].destAddresses = "host0"
*.host2.app[7].source.packetNameFormat = "%M-%m-%c"
*.host2.app[7].source.displayStringTextFormat = "sent %p pk (%l)"
*.host2.app[7].messageLength = 19B
*.host2.app[7].sendInterval = 1ms
*.host2.app[7].startTime = 4800us
*.host2.app[7].stopTime = 4900us
*.host2.app[7].display-name = "type2_2"
*.host2.app[7].destPort = 1001
*.host2.app[8].typename = "UdpBasicApp"
*.host2.app[8].destAddresses = "host0"
*.host2.app[8].source.packetNameFormat = "%M-%m-%c"
*.host2.app[8].source.displayStringTextFormat = "sent %p pk (%l)"
*.host2.app[8].messageLength = 19B
*.host2.app[8].sendInterval = 1ms
*.host2.app[8].startTime = 5500us
*.host2.app[8].stopTime = 6300us
*.host2.app[8].display-name = "type2_2"
*.host2.app[8].destPort = 1001
*.host2.app[9].typename = "UdpBasicApp"
*.host2.app[9].destAddresses = "host0"
*.host2.app[9].source.packetNameFormat = "%M-%m-%c"
*.host2.app[9].source.displayStringTextFormat = "sent %p pk (%l)"
*.host2.app[9].messageLength = 19B
*.host2.app[9].sendInterval = 1ms
*.host2.app[9].startTime = 6600us
*.host2.app[9].stopTime = 7300us
*.host2.app[9].display-name = "type2_2"
*.host2.app[9].destPort = 1001
*.host2.app[10].typename = "UdpBasicApp"
*.host2.app[10].destAddresses = "host0"
*.host2.app[10].source.packetNameFormat = "%M-%m-%c"
*.host2.app[10].source.displayStringTextFormat = "sent %p pk (%l)"
*.host2.app[10].messageLength = 19B
*.host2.app[10].sendInterval = 1ms
*.host2.app[10].startTime = 7600us
*.host2.app[10].stopTime = 9600us
*.host2.app[10].display-name = "type2_2"
*.host2.app[10].destPort = 1001
*.host2.app[11].typename = "UdpBasicApp"
*.host2.app[11].destAddresses = "host0"
*.host2.app[11].source.packetNameFormat = "%M-%m-%c"
*.host2.app[11].source.displayStringTextFormat = "sent %p pk (%l)"
*.host2.app[11].messageLength = 19B
*.host2.app[11].sendInterval = 1ms
*.host2.app[11].startTime = 9900us
*.host2.app[11].stopTime = 10000us
*.host2.app[11].display-name = "type2_2"
*.host2.app[11].destPort = 1001
*.host3.numApps = 1
*.host3.app[0].typename = "UdpSinkApp"
*.host3.app[0].io.localPort = 1000
*.host4.numApps = 0
*.streamRedundancyConfigurator.configuration = [
	{
		name: "S1-0",
		packetFilter: "*-type1_0-*",
		source: "host2",
		destination: "host1",
		trees: [[["host2", "switch2", "switch3", "switch1", "host1"]]]
	},
	{
		name: "S1-1",
		packetFilter: "*-type1_1-*",
		source: "host2",
		destination: "host1",
		trees: [[["host2", "switch2", "switch3", "switch1", "host1"]]]
	},
	{
		name: "S1-2",
		packetFilter: "*-type1_2-*",
		source: "host2",
		destination: "host3",
		trees: [[["host2", "switch2", "switch3", "host3"]]]
	},
	{
		name: "S2-0",
		packetFilter: "*-type2_0-*",
		source: "host1",
		destination: "host0",
		trees: [[["host1", "switch1", "switch4", "switch2", "switch3", "switch0", "host0"]]]
	},
	{
		name: "S2-1",
		packetFilter: "*-type2_1-*",
		source: "host0",
		destination: "host1",
		trees: [[["host0", "switch0", "switch1", "host1"]]]
	},
	{
		name: "S2-2",
		packetFilter: "*-type2_2-*",
		source: "host2",
		destination: "host0",
		trees: [[["host2", "switch2", "switch3", "switch0", "host0"]]]
	}]
	

