[General]
network = TSN_multipath
sim-time-limit = 100ms
*.macForwardingTableConfigurator.typename = ""
*.*.hasStreamRedundancy = true
*.*.bridging.streamRelay.typename = "StreamRelayLayer"
*.*.bridging.streamCoder.typename = "StreamCoderLayer"
*.streamRedundancyConfigurator.typename = "StreamRedundancyConfigurator"
*.host0.eth[0].bitrate = 1000Mbps
*.switch0.eth[0].bitrate = 1000Mbps
*.switch0.eth[1].bitrate = 2200Mbps
*.switch0.eth[2].bitrate = 2300Mbps
*.switch0.eth[3].bitrate = 1400Mbps
*.switch0.eth[4].bitrate = 1900Mbps
*.switch0.eth[5].bitrate = 1500Mbps
*.switch0.eth[6].bitrate = 1300Mbps
*.switch0.eth[7].bitrate = 2100Mbps
*.host1.eth[0].bitrate = 1000Mbps
*.switch1.eth[0].bitrate = 1000Mbps
*.switch1.eth[1].bitrate = 2200Mbps
*.switch1.eth[2].bitrate = 1900Mbps
*.switch1.eth[3].bitrate = 1800Mbps
*.switch1.eth[4].bitrate = 1300Mbps
*.host2.eth[0].bitrate = 1000Mbps
*.switch2.eth[0].bitrate = 1000Mbps
*.switch2.eth[1].bitrate = 2300Mbps
*.switch2.eth[2].bitrate = 1500Mbps
*.switch2.eth[3].bitrate = 2400Mbps
*.host3.eth[0].bitrate = 1000Mbps
*.switch3.eth[0].bitrate = 1000Mbps
*.switch3.eth[1].bitrate = 1800Mbps
*.switch3.eth[2].bitrate = 1300Mbps
*.switch3.eth[3].bitrate = 2400Mbps
*.switch3.eth[4].bitrate = 1700Mbps
*.switch3.eth[5].bitrate = 1700Mbps
*.host4.eth[0].bitrate = 1000Mbps
*.switch4.eth[0].bitrate = 1000Mbps
*.switch4.eth[1].bitrate = 1400Mbps
*.switch4.eth[2].bitrate = 1300Mbps
*.switch4.eth[3].bitrate = 1700Mbps
*.switch4.eth[4].bitrate = 2100Mbps
*.switch4.eth[5].bitrate = 1700Mbps
*.host4.numApps = 1
*.host4.app[0].typename = "UdpSourceApp"
*.host4.app[0].io.destAddress = "host1"
*.host4.app[0].source.packetNameFormat = "%M-%m-%c"
*.host4.app[0].source.displayStringTextFormat = "sent %p pk (%l)"
*.host4.app[0].source.packetLength = 12B
*.host4.app[0].source.productionInterval = 1ms
*.host4.app[0].display-name = "type1_1"
*.host4.app[0].io.destPort = 1000
*.host1.numApps = 1
*.host1.app[0].typename = "UdpSinkApp"
*.host1.app[0].io.localPort = 1000
*.streamRedundancyConfigurator.configuration = [
	{
		name: "shortest_path",
		packetFilter: "*-type1_1-*",
		source: "host4",
		destination: "host1",
		trees: [[["host4", "switch4", "switch0", "switch1", "host1"]]]
	}]
	

