[General]
network = TSN_multipath
sim-time-limit = 100ms
*.macForwardingTableConfigurator.typename = ""
*.*.hasStreamRedundancy = true
*.*.bridging.streamRelay.typename = "StreamRelayLayer"
*.*.bridging.streamCoder.typename = "StreamCoderLayer"
*.streamRedundancyConfigurator.typename = "StreamRedundancyConfigurator"
*.host0.eth[0].bitrate = 1000Mbps
*.switch0.eth[0].bitrate = 1000Mbps
*.switch0.eth[1].bitrate = 2100Mbps
*.switch0.eth[2].bitrate = 2000Mbps
*.switch0.eth[3].bitrate = 1700Mbps
*.switch0.eth[4].bitrate = 1200Mbps
*.switch0.eth[5].bitrate = 1900Mbps
*.switch0.eth[6].bitrate = 2300Mbps
*.switch0.eth[7].bitrate = 1700Mbps
*.switch0.eth[8].bitrate = 1600Mbps
*.switch0.eth[9].bitrate = 1300Mbps
*.switch0.eth[10].bitrate = 2200Mbps
*.switch0.eth[11].bitrate = 1400Mbps
*.switch0.eth[12].bitrate = 1200Mbps
*.switch0.eth[13].bitrate = 2400Mbps
*.switch0.eth[14].bitrate = 2300Mbps
*.host1.eth[0].bitrate = 1000Mbps
*.switch1.eth[0].bitrate = 1000Mbps
*.switch1.eth[1].bitrate = 2000Mbps
*.switch1.eth[2].bitrate = 1700Mbps
*.switch1.eth[3].bitrate = 1900Mbps
*.switch1.eth[4].bitrate = 2100Mbps
*.switch1.eth[5].bitrate = 1200Mbps
*.switch1.eth[6].bitrate = 2400Mbps
*.switch1.eth[7].bitrate = 2400Mbps
*.switch1.eth[8].bitrate = 1200Mbps
*.switch1.eth[9].bitrate = 1400Mbps
*.switch1.eth[10].bitrate = 1500Mbps
*.switch1.eth[11].bitrate = 1700Mbps
*.switch1.eth[12].bitrate = 1900Mbps
*.switch1.eth[13].bitrate = 2100Mbps
*.switch1.eth[14].bitrate = 1600Mbps
*.switch1.eth[15].bitrate = 1300Mbps
*.switch1.eth[16].bitrate = 1400Mbps
*.host2.eth[0].bitrate = 1000Mbps
*.switch2.eth[0].bitrate = 1000Mbps
*.switch2.eth[1].bitrate = 1400Mbps
*.switch2.eth[2].bitrate = 1300Mbps
*.switch2.eth[3].bitrate = 1300Mbps
*.switch2.eth[4].bitrate = 1500Mbps
*.switch2.eth[5].bitrate = 2400Mbps
*.switch2.eth[6].bitrate = 1700Mbps
*.switch2.eth[7].bitrate = 2000Mbps
*.switch2.eth[8].bitrate = 2300Mbps
*.switch2.eth[9].bitrate = 2300Mbps
*.switch2.eth[10].bitrate = 2300Mbps
*.switch2.eth[11].bitrate = 1400Mbps
*.switch2.eth[12].bitrate = 2200Mbps
*.switch2.eth[13].bitrate = 1400Mbps
*.switch2.eth[14].bitrate = 2000Mbps
*.switch2.eth[15].bitrate = 2400Mbps
*.host3.eth[0].bitrate = 1000Mbps
*.switch3.eth[0].bitrate = 1000Mbps
*.switch3.eth[1].bitrate = 2000Mbps
*.switch3.eth[2].bitrate = 1300Mbps
*.switch3.eth[3].bitrate = 1500Mbps
*.switch3.eth[4].bitrate = 1800Mbps
*.switch3.eth[5].bitrate = 2000Mbps
*.switch3.eth[6].bitrate = 2400Mbps
*.switch3.eth[7].bitrate = 1900Mbps
*.switch3.eth[8].bitrate = 2400Mbps
*.switch3.eth[9].bitrate = 1700Mbps
*.switch3.eth[10].bitrate = 1600Mbps
*.switch3.eth[11].bitrate = 1700Mbps
*.switch3.eth[12].bitrate = 1900Mbps
*.switch3.eth[13].bitrate = 1600Mbps
*.host4.eth[0].bitrate = 1000Mbps
*.switch4.eth[0].bitrate = 1000Mbps
*.switch4.eth[1].bitrate = 2100Mbps
*.switch4.eth[2].bitrate = 1700Mbps
*.switch4.eth[3].bitrate = 1300Mbps
*.switch4.eth[4].bitrate = 1700Mbps
*.switch4.eth[5].bitrate = 2300Mbps
*.switch4.eth[6].bitrate = 2400Mbps
*.switch4.eth[7].bitrate = 2000Mbps
*.switch4.eth[8].bitrate = 1300Mbps
*.switch4.eth[9].bitrate = 2300Mbps
*.switch4.eth[10].bitrate = 2000Mbps
*.switch4.eth[11].bitrate = 2300Mbps
*.switch4.eth[12].bitrate = 1700Mbps
*.switch4.eth[13].bitrate = 1800Mbps
*.switch4.eth[14].bitrate = 2200Mbps
*.switch4.eth[15].bitrate = 1200Mbps
*.switch4.eth[16].bitrate = 1200Mbps
*.host5.eth[0].bitrate = 1000Mbps
*.switch5.eth[0].bitrate = 1000Mbps
*.switch5.eth[1].bitrate = 2000Mbps
*.switch5.eth[2].bitrate = 1900Mbps
*.switch5.eth[3].bitrate = 1300Mbps
*.switch5.eth[4].bitrate = 1800Mbps
*.switch5.eth[5].bitrate = 2000Mbps
*.switch5.eth[6].bitrate = 2200Mbps
*.switch5.eth[7].bitrate = 1400Mbps
*.switch5.eth[8].bitrate = 1700Mbps
*.switch5.eth[9].bitrate = 2300Mbps
*.switch5.eth[10].bitrate = 1700Mbps
*.switch5.eth[11].bitrate = 1700Mbps
*.switch5.eth[12].bitrate = 1700Mbps
*.switch5.eth[13].bitrate = 2400Mbps
*.switch5.eth[14].bitrate = 2000Mbps
*.switch5.eth[15].bitrate = 1600Mbps
*.switch5.eth[16].bitrate = 1200Mbps
*.switch5.eth[17].bitrate = 1700Mbps
*.switch5.eth[18].bitrate = 1700Mbps
*.switch5.eth[19].bitrate = 1800Mbps
*.switch5.eth[20].bitrate = 2100Mbps
*.switch5.eth[21].bitrate = 2300Mbps
*.switch5.eth[22].bitrate = 1900Mbps
*.switch5.eth[23].bitrate = 1600Mbps
*.host6.eth[0].bitrate = 1000Mbps
*.switch6.eth[0].bitrate = 1000Mbps
*.switch6.eth[1].bitrate = 1700Mbps
*.switch6.eth[2].bitrate = 1300Mbps
*.switch6.eth[3].bitrate = 1700Mbps
*.switch6.eth[4].bitrate = 1800Mbps
*.switch6.eth[5].bitrate = 2000Mbps
*.switch6.eth[6].bitrate = 1700Mbps
*.switch6.eth[7].bitrate = 1300Mbps
*.switch6.eth[8].bitrate = 1900Mbps
*.switch6.eth[9].bitrate = 2100Mbps
*.switch6.eth[10].bitrate = 1500Mbps
*.switch6.eth[11].bitrate = 1200Mbps
*.switch6.eth[12].bitrate = 1400Mbps
*.host7.eth[0].bitrate = 1000Mbps
*.switch7.eth[0].bitrate = 1000Mbps
*.switch7.eth[1].bitrate = 1200Mbps
*.switch7.eth[2].bitrate = 2100Mbps
*.switch7.eth[3].bitrate = 1500Mbps
*.switch7.eth[4].bitrate = 1700Mbps
*.switch7.eth[5].bitrate = 1900Mbps
*.switch7.eth[6].bitrate = 2200Mbps
*.switch7.eth[7].bitrate = 1700Mbps
*.switch7.eth[8].bitrate = 1300Mbps
*.switch7.eth[9].bitrate = 2400Mbps
*.switch7.eth[10].bitrate = 1300Mbps
*.switch7.eth[11].bitrate = 1700Mbps
*.switch7.eth[12].bitrate = 2300Mbps
*.switch7.eth[13].bitrate = 2300Mbps
*.switch7.eth[14].bitrate = 2100Mbps
*.switch7.eth[15].bitrate = 2000Mbps
*.host8.eth[0].bitrate = 1000Mbps
*.switch8.eth[0].bitrate = 1000Mbps
*.switch8.eth[1].bitrate = 1900Mbps
*.switch8.eth[2].bitrate = 1200Mbps
*.switch8.eth[3].bitrate = 2400Mbps
*.switch8.eth[4].bitrate = 2000Mbps
*.switch8.eth[5].bitrate = 2300Mbps
*.switch8.eth[6].bitrate = 1700Mbps
*.switch8.eth[7].bitrate = 2000Mbps
*.switch8.eth[8].bitrate = 2400Mbps
*.switch8.eth[9].bitrate = 2100Mbps
*.switch8.eth[10].bitrate = 1400Mbps
*.switch8.eth[11].bitrate = 1600Mbps
*.switch8.eth[12].bitrate = 1800Mbps
*.switch8.eth[13].bitrate = 2100Mbps
*.switch8.eth[14].bitrate = 1900Mbps
*.switch8.eth[15].bitrate = 2300Mbps
*.switch8.eth[16].bitrate = 1600Mbps
*.switch8.eth[17].bitrate = 1900Mbps
*.switch8.eth[18].bitrate = 2400Mbps
*.switch8.eth[19].bitrate = 2000Mbps
*.switch8.eth[20].bitrate = 1900Mbps
*.switch8.eth[21].bitrate = 1700Mbps
*.switch8.eth[22].bitrate = 1300Mbps
*.switch8.eth[23].bitrate = 2100Mbps
*.host9.eth[0].bitrate = 1000Mbps
*.switch9.eth[0].bitrate = 1000Mbps
*.switch9.eth[1].bitrate = 2400Mbps
*.switch9.eth[2].bitrate = 1700Mbps
*.switch9.eth[3].bitrate = 2000Mbps
*.switch9.eth[4].bitrate = 2400Mbps
*.switch9.eth[5].bitrate = 1300Mbps
*.switch9.eth[6].bitrate = 1400Mbps
*.switch9.eth[7].bitrate = 1600Mbps
*.switch9.eth[8].bitrate = 2000Mbps
*.switch9.eth[9].bitrate = 1700Mbps
*.switch9.eth[10].bitrate = 2200Mbps
*.switch9.eth[11].bitrate = 2300Mbps
*.switch9.eth[12].bitrate = 2100Mbps
*.switch9.eth[13].bitrate = 1700Mbps
*.switch9.eth[14].bitrate = 1900Mbps
*.switch9.eth[15].bitrate = 2200Mbps
*.switch9.eth[16].bitrate = 2000Mbps
*.switch9.eth[17].bitrate = 1300Mbps
*.switch9.eth[18].bitrate = 2400Mbps
*.host10.eth[0].bitrate = 1000Mbps
*.switch10.eth[0].bitrate = 1000Mbps
*.switch10.eth[1].bitrate = 2300Mbps
*.switch10.eth[2].bitrate = 2000Mbps
*.switch10.eth[3].bitrate = 2400Mbps
*.switch10.eth[4].bitrate = 2000Mbps
*.switch10.eth[5].bitrate = 1600Mbps
*.switch10.eth[6].bitrate = 1900Mbps
*.switch10.eth[7].bitrate = 1200Mbps
*.switch10.eth[8].bitrate = 1300Mbps
*.switch10.eth[9].bitrate = 1200Mbps
*.switch10.eth[10].bitrate = 1900Mbps
*.switch10.eth[11].bitrate = 1500Mbps
*.switch10.eth[12].bitrate = 2300Mbps
*.switch10.eth[13].bitrate = 1300Mbps
*.switch10.eth[14].bitrate = 2400Mbps
*.switch10.eth[15].bitrate = 2200Mbps
*.switch10.eth[16].bitrate = 1500Mbps
*.switch10.eth[17].bitrate = 2300Mbps
*.switch10.eth[18].bitrate = 1200Mbps
*.switch10.eth[19].bitrate = 1300Mbps
*.host11.eth[0].bitrate = 1000Mbps
*.switch11.eth[0].bitrate = 1000Mbps
*.switch11.eth[1].bitrate = 2300Mbps
*.switch11.eth[2].bitrate = 1600Mbps
*.switch11.eth[3].bitrate = 1900Mbps
*.switch11.eth[4].bitrate = 2200Mbps
*.switch11.eth[5].bitrate = 2200Mbps
*.switch11.eth[6].bitrate = 2400Mbps
*.switch11.eth[7].bitrate = 1200Mbps
*.switch11.eth[8].bitrate = 1200Mbps
*.switch11.eth[9].bitrate = 1200Mbps
*.switch11.eth[10].bitrate = 1900Mbps
*.switch11.eth[11].bitrate = 1300Mbps
*.host12.eth[0].bitrate = 1000Mbps
*.switch12.eth[0].bitrate = 1000Mbps
*.switch12.eth[1].bitrate = 1700Mbps
*.switch12.eth[2].bitrate = 2300Mbps
*.switch12.eth[3].bitrate = 1200Mbps
*.switch12.eth[4].bitrate = 2400Mbps
*.switch12.eth[5].bitrate = 2000Mbps
*.switch12.eth[6].bitrate = 1500Mbps
*.switch12.eth[7].bitrate = 1400Mbps
*.switch12.eth[8].bitrate = 1400Mbps
*.switch12.eth[9].bitrate = 2400Mbps
*.host13.eth[0].bitrate = 1000Mbps
*.switch13.eth[0].bitrate = 1000Mbps
*.switch13.eth[1].bitrate = 2400Mbps
*.switch13.eth[2].bitrate = 1900Mbps
*.switch13.eth[3].bitrate = 1700Mbps
*.switch13.eth[4].bitrate = 1700Mbps
*.switch13.eth[5].bitrate = 1700Mbps
*.switch13.eth[6].bitrate = 2000Mbps
*.switch13.eth[7].bitrate = 1300Mbps
*.switch13.eth[8].bitrate = 2300Mbps
*.switch13.eth[9].bitrate = 1200Mbps
*.switch13.eth[10].bitrate = 2300Mbps
*.switch13.eth[11].bitrate = 2400Mbps
*.switch13.eth[12].bitrate = 1900Mbps
*.switch13.eth[13].bitrate = 1600Mbps
*.switch13.eth[14].bitrate = 2100Mbps
*.switch13.eth[15].bitrate = 2100Mbps
*.switch13.eth[16].bitrate = 1300Mbps
*.switch13.eth[17].bitrate = 1300Mbps
*.switch13.eth[18].bitrate = 1400Mbps
*.switch13.eth[19].bitrate = 1900Mbps
*.switch13.eth[20].bitrate = 1800Mbps
*.host14.eth[0].bitrate = 1000Mbps
*.switch14.eth[0].bitrate = 1000Mbps
*.switch14.eth[1].bitrate = 1600Mbps
*.switch14.eth[2].bitrate = 1200Mbps
*.switch14.eth[3].bitrate = 1700Mbps
*.switch14.eth[4].bitrate = 1900Mbps
*.switch14.eth[5].bitrate = 1200Mbps
*.switch14.eth[6].bitrate = 1900Mbps
*.switch14.eth[7].bitrate = 1900Mbps
*.switch14.eth[8].bitrate = 1600Mbps
*.switch14.eth[9].bitrate = 1400Mbps
*.switch14.eth[10].bitrate = 2000Mbps
*.switch14.eth[11].bitrate = 2400Mbps
*.switch14.eth[12].bitrate = 1800Mbps
*.host0.numApps = 3
*.host0.app[0].typename = "UdpSinkApp"
*.host0.app[0].io.localPort = 1000
*.host0.app[1].typename = "UdpSourceApp"
*.host0.app[1].io.destAddress = "host9"
*.host0.app[1].source.packetNameFormat = "%M-%m-%c"
*.host0.app[1].source.displayStringTextFormat = "sent %p pk (%l)"
*.host0.app[1].source.packetLength = 17B
*.host0.app[1].source.productionInterval = 1ms
*.host0.app[1].display-name = "type1_3"
*.host0.app[1].io.destPort = 1000
*.host0.app[2].typename = "UdpSinkApp"
*.host0.app[2].io.localPort = 1001
*.host1.numApps = 2
*.host1.app[0].typename = "UdpSourceApp"
*.host1.app[0].io.destAddress = "host4"
*.host1.app[0].source.packetNameFormat = "%M-%m-%c"
*.host1.app[0].source.displayStringTextFormat = "sent %p pk (%l)"
*.host1.app[0].source.packetLength = 16B
*.host1.app[0].source.productionInterval = 1ms
*.host1.app[0].display-name = "type1_5"
*.host1.app[0].io.destPort = 1000
*.host1.app[1].typename = "UdpSinkApp"
*.host1.app[1].io.localPort = 1000
*.host2.numApps = 12
*.host2.app[0].typename = "UdpSinkApp"
*.host2.app[0].io.localPort = 1000
*.host2.app[1].typename = "UdpSourceApp"
*.host2.app[1].io.destAddress = "host0"
*.host2.app[1].source.packetNameFormat = "%M-%m-%c"
*.host2.app[1].source.displayStringTextFormat = "sent %p pk (%l)"
*.host2.app[1].source.packetLength = 15B
*.host2.app[1].source.productionInterval = 1ms
*.host2.app[1].display-name = "type1_4"
*.host2.app[1].io.destPort = 1001
*.host2.app[2].typename = "UdpBasicApp"
*.host2.app[2].destAddresses = "host12"
*.host2.app[2].source.packetNameFormat = "%M-%m-%c"
*.host2.app[2].source.displayStringTextFormat = "sent %p pk (%l)"
*.host2.app[2].messageLength = 17B
*.host2.app[2].sendInterval = 1ms
*.host2.app[2].startTime = 5ms
*.host2.app[2].stopTime = 11ms
*.host2.app[2].display-name = "type2_6"
*.host2.app[2].destPort = 1002
*.host2.app[3].typename = "UdpBasicApp"
*.host2.app[3].destAddresses = "host12"
*.host2.app[3].source.packetNameFormat = "%M-%m-%c"
*.host2.app[3].source.displayStringTextFormat = "sent %p pk (%l)"
*.host2.app[3].messageLength = 17B
*.host2.app[3].sendInterval = 1ms
*.host2.app[3].startTime = 16ms
*.host2.app[3].stopTime = 17ms
*.host2.app[3].display-name = "type2_6"
*.host2.app[3].destPort = 1002
*.host2.app[4].typename = "UdpBasicApp"
*.host2.app[4].destAddresses = "host12"
*.host2.app[4].source.packetNameFormat = "%M-%m-%c"
*.host2.app[4].source.displayStringTextFormat = "sent %p pk (%l)"
*.host2.app[4].messageLength = 17B
*.host2.app[4].sendInterval = 1ms
*.host2.app[4].startTime = 33ms
*.host2.app[4].stopTime = 41ms
*.host2.app[4].display-name = "type2_6"
*.host2.app[4].destPort = 1002
*.host2.app[5].typename = "UdpBasicApp"
*.host2.app[5].destAddresses = "host12"
*.host2.app[5].source.packetNameFormat = "%M-%m-%c"
*.host2.app[5].source.displayStringTextFormat = "sent %p pk (%l)"
*.host2.app[5].messageLength = 17B
*.host2.app[5].sendInterval = 1ms
*.host2.app[5].startTime = 44ms
*.host2.app[5].stopTime = 54ms
*.host2.app[5].display-name = "type2_6"
*.host2.app[5].destPort = 1002
*.host2.app[6].typename = "UdpBasicApp"
*.host2.app[6].destAddresses = "host12"
*.host2.app[6].source.packetNameFormat = "%M-%m-%c"
*.host2.app[6].source.displayStringTextFormat = "sent %p pk (%l)"
*.host2.app[6].messageLength = 17B
*.host2.app[6].sendInterval = 1ms
*.host2.app[6].startTime = 63ms
*.host2.app[6].stopTime = 65ms
*.host2.app[6].display-name = "type2_6"
*.host2.app[6].destPort = 1002
*.host2.app[7].typename = "UdpBasicApp"
*.host2.app[7].destAddresses = "host12"
*.host2.app[7].source.packetNameFormat = "%M-%m-%c"
*.host2.app[7].source.displayStringTextFormat = "sent %p pk (%l)"
*.host2.app[7].messageLength = 17B
*.host2.app[7].sendInterval = 1ms
*.host2.app[7].startTime = 66ms
*.host2.app[7].stopTime = 86ms
*.host2.app[7].display-name = "type2_6"
*.host2.app[7].destPort = 1002
*.host2.app[8].typename = "UdpBasicApp"
*.host2.app[8].destAddresses = "host9"
*.host2.app[8].source.packetNameFormat = "%M-%m-%c"
*.host2.app[8].source.displayStringTextFormat = "sent %p pk (%l)"
*.host2.app[8].messageLength = 16B
*.host2.app[8].sendInterval = 1ms
*.host2.app[8].startTime = 7ms
*.host2.app[8].stopTime = 18ms
*.host2.app[8].display-name = "type2_8"
*.host2.app[8].destPort = 1002
*.host2.app[9].typename = "UdpBasicApp"
*.host2.app[9].destAddresses = "host9"
*.host2.app[9].source.packetNameFormat = "%M-%m-%c"
*.host2.app[9].source.displayStringTextFormat = "sent %p pk (%l)"
*.host2.app[9].messageLength = 16B
*.host2.app[9].sendInterval = 1ms
*.host2.app[9].startTime = 44ms
*.host2.app[9].stopTime = 47ms
*.host2.app[9].display-name = "type2_8"
*.host2.app[9].destPort = 1002
*.host2.app[10].typename = "UdpBasicApp"
*.host2.app[10].destAddresses = "host9"
*.host2.app[10].source.packetNameFormat = "%M-%m-%c"
*.host2.app[10].source.displayStringTextFormat = "sent %p pk (%l)"
*.host2.app[10].messageLength = 16B
*.host2.app[10].sendInterval = 1ms
*.host2.app[10].startTime = 50ms
*.host2.app[10].stopTime = 52ms
*.host2.app[10].display-name = "type2_8"
*.host2.app[10].destPort = 1002
*.host2.app[11].typename = "UdpBasicApp"
*.host2.app[11].destAddresses = "host9"
*.host2.app[11].source.packetNameFormat = "%M-%m-%c"
*.host2.app[11].source.displayStringTextFormat = "sent %p pk (%l)"
*.host2.app[11].messageLength = 16B
*.host2.app[11].sendInterval = 1ms
*.host2.app[11].startTime = 77ms
*.host2.app[11].stopTime = 84ms
*.host2.app[11].display-name = "type2_8"
*.host2.app[11].destPort = 1002
*.host3.numApps = 2
*.host3.app[0].typename = "UdpSinkApp"
*.host3.app[0].io.localPort = 1000
*.host3.app[1].typename = "UdpSinkApp"
*.host3.app[1].io.localPort = 1001
*.host4.numApps = 1
*.host4.app[0].typename = "UdpSinkApp"
*.host4.app[0].io.localPort = 1000
*.host5.numApps = 2
*.host5.app[0].typename = "UdpSinkApp"
*.host5.app[0].io.localPort = 1000
*.host5.app[1].typename = "UdpSinkApp"
*.host5.app[1].io.localPort = 1001
*.host6.numApps = 13
*.host6.app[0].typename = "UdpSinkApp"
*.host6.app[0].io.localPort = 1000
*.host6.app[1].typename = "UdpBasicApp"
*.host6.app[1].destAddresses = "host7"
*.host6.app[1].source.packetNameFormat = "%M-%m-%c"
*.host6.app[1].source.displayStringTextFormat = "sent %p pk (%l)"
*.host6.app[1].messageLength = 19B
*.host6.app[1].sendInterval = 1ms
*.host6.app[1].startTime = 1ms
*.host6.app[1].stopTime = 5ms
*.host6.app[1].display-name = "type2_0"
*.host6.app[1].destPort = 1000
*.host6.app[2].typename = "UdpBasicApp"
*.host6.app[2].destAddresses = "host7"
*.host6.app[2].source.packetNameFormat = "%M-%m-%c"
*.host6.app[2].source.displayStringTextFormat = "sent %p pk (%l)"
*.host6.app[2].messageLength = 19B
*.host6.app[2].sendInterval = 1ms
*.host6.app[2].startTime = 13ms
*.host6.app[2].stopTime = 23ms
*.host6.app[2].display-name = "type2_0"
*.host6.app[2].destPort = 1000
*.host6.app[3].typename = "UdpBasicApp"
*.host6.app[3].destAddresses = "host7"
*.host6.app[3].source.packetNameFormat = "%M-%m-%c"
*.host6.app[3].source.displayStringTextFormat = "sent %p pk (%l)"
*.host6.app[3].messageLength = 19B
*.host6.app[3].sendInterval = 1ms
*.host6.app[3].startTime = 28ms
*.host6.app[3].stopTime = 37ms
*.host6.app[3].display-name = "type2_0"
*.host6.app[3].destPort = 1000
*.host6.app[4].typename = "UdpBasicApp"
*.host6.app[4].destAddresses = "host7"
*.host6.app[4].source.packetNameFormat = "%M-%m-%c"
*.host6.app[4].source.displayStringTextFormat = "sent %p pk (%l)"
*.host6.app[4].messageLength = 19B
*.host6.app[4].sendInterval = 1ms
*.host6.app[4].startTime = 53ms
*.host6.app[4].stopTime = 66ms
*.host6.app[4].display-name = "type2_0"
*.host6.app[4].destPort = 1000
*.host6.app[5].typename = "UdpBasicApp"
*.host6.app[5].destAddresses = "host7"
*.host6.app[5].source.packetNameFormat = "%M-%m-%c"
*.host6.app[5].source.displayStringTextFormat = "sent %p pk (%l)"
*.host6.app[5].messageLength = 19B
*.host6.app[5].sendInterval = 1ms
*.host6.app[5].startTime = 67ms
*.host6.app[5].stopTime = 78ms
*.host6.app[5].display-name = "type2_0"
*.host6.app[5].destPort = 1000
*.host6.app[6].typename = "UdpBasicApp"
*.host6.app[6].destAddresses = "host7"
*.host6.app[6].source.packetNameFormat = "%M-%m-%c"
*.host6.app[6].source.displayStringTextFormat = "sent %p pk (%l)"
*.host6.app[6].messageLength = 19B
*.host6.app[6].sendInterval = 1ms
*.host6.app[6].startTime = 80ms
*.host6.app[6].stopTime = 100ms
*.host6.app[6].display-name = "type2_0"
*.host6.app[6].destPort = 1000
*.host6.app[7].typename = "UdpBasicApp"
*.host6.app[7].destAddresses = "host5"
*.host6.app[7].source.packetNameFormat = "%M-%m-%c"
*.host6.app[7].source.displayStringTextFormat = "sent %p pk (%l)"
*.host6.app[7].messageLength = 12B
*.host6.app[7].sendInterval = 1ms
*.host6.app[7].startTime = 3ms
*.host6.app[7].stopTime = 9ms
*.host6.app[7].display-name = "type2_1"
*.host6.app[7].destPort = 1001
*.host6.app[8].typename = "UdpBasicApp"
*.host6.app[8].destAddresses = "host5"
*.host6.app[8].source.packetNameFormat = "%M-%m-%c"
*.host6.app[8].source.displayStringTextFormat = "sent %p pk (%l)"
*.host6.app[8].messageLength = 12B
*.host6.app[8].sendInterval = 1ms
*.host6.app[8].startTime = 12ms
*.host6.app[8].stopTime = 13ms
*.host6.app[8].display-name = "type2_1"
*.host6.app[8].destPort = 1001
*.host6.app[9].typename = "UdpBasicApp"
*.host6.app[9].destAddresses = "host5"
*.host6.app[9].source.packetNameFormat = "%M-%m-%c"
*.host6.app[9].source.displayStringTextFormat = "sent %p pk (%l)"
*.host6.app[9].messageLength = 12B
*.host6.app[9].sendInterval = 1ms
*.host6.app[9].startTime = 21ms
*.host6.app[9].stopTime = 29ms
*.host6.app[9].display-name = "type2_1"
*.host6.app[9].destPort = 1001
*.host6.app[10].typename = "UdpBasicApp"
*.host6.app[10].destAddresses = "host5"
*.host6.app[10].source.packetNameFormat = "%M-%m-%c"
*.host6.app[10].source.displayStringTextFormat = "sent %p pk (%l)"
*.host6.app[10].messageLength = 12B
*.host6.app[10].sendInterval = 1ms
*.host6.app[10].startTime = 34ms
*.host6.app[10].stopTime = 93ms
*.host6.app[10].display-name = "type2_1"
*.host6.app[10].destPort = 1001
*.host6.app[11].typename = "UdpBasicApp"
*.host6.app[11].destAddresses = "host5"
*.host6.app[11].source.packetNameFormat = "%M-%m-%c"
*.host6.app[11].source.displayStringTextFormat = "sent %p pk (%l)"
*.host6.app[11].messageLength = 12B
*.host6.app[11].sendInterval = 1ms
*.host6.app[11].startTime = 95ms
*.host6.app[11].stopTime = 100ms
*.host6.app[11].display-name = "type2_1"
*.host6.app[11].destPort = 1001
*.host6.app[12].typename = "UdpSinkApp"
*.host6.app[12].io.localPort = 1001
*.host7.numApps = 4
*.host7.app[0].typename = "UdpSinkApp"
*.host7.app[0].io.localPort = 1000
*.host7.app[1].typename = "UdpBasicApp"
*.host7.app[1].destAddresses = "host12"
*.host7.app[1].source.packetNameFormat = "%M-%m-%c"
*.host7.app[1].source.displayStringTextFormat = "sent %p pk (%l)"
*.host7.app[1].messageLength = 22B
*.host7.app[1].sendInterval = 1ms
*.host7.app[1].startTime = 1ms
*.host7.app[1].stopTime = 22ms
*.host7.app[1].display-name = "type2_2"
*.host7.app[1].destPort = 1001
*.host7.app[2].typename = "UdpBasicApp"
*.host7.app[2].destAddresses = "host12"
*.host7.app[2].source.packetNameFormat = "%M-%m-%c"
*.host7.app[2].source.displayStringTextFormat = "sent %p pk (%l)"
*.host7.app[2].messageLength = 22B
*.host7.app[2].sendInterval = 1ms
*.host7.app[2].startTime = 47ms
*.host7.app[2].stopTime = 57ms
*.host7.app[2].display-name = "type2_2"
*.host7.app[2].destPort = 1001
*.host7.app[3].typename = "UdpBasicApp"
*.host7.app[3].destAddresses = "host12"
*.host7.app[3].source.packetNameFormat = "%M-%m-%c"
*.host7.app[3].source.displayStringTextFormat = "sent %p pk (%l)"
*.host7.app[3].messageLength = 22B
*.host7.app[3].sendInterval = 1ms
*.host7.app[3].startTime = 69ms
*.host7.app[3].stopTime = 100ms
*.host7.app[3].display-name = "type2_2"
*.host7.app[3].destPort = 1001
*.host8.numApps = 2
*.host8.app[0].typename = "UdpSourceApp"
*.host8.app[0].io.destAddress = "host0"
*.host8.app[0].source.packetNameFormat = "%M-%m-%c"
*.host8.app[0].source.displayStringTextFormat = "sent %p pk (%l)"
*.host8.app[0].source.packetLength = 18B
*.host8.app[0].source.productionInterval = 1ms
*.host8.app[0].display-name = "type1_1"
*.host8.app[0].io.destPort = 1000
*.host8.app[1].typename = "UdpSinkApp"
*.host8.app[1].io.localPort = 1000
*.host9.numApps = 21
*.host9.app[0].typename = "UdpSinkApp"
*.host9.app[0].io.localPort = 1000
*.host9.app[1].typename = "UdpSinkApp"
*.host9.app[1].io.localPort = 1001
*.host9.app[2].typename = "UdpSourceApp"
*.host9.app[2].io.destAddress = "host5"
*.host9.app[2].source.packetNameFormat = "%M-%m-%c"
*.host9.app[2].source.displayStringTextFormat = "sent %p pk (%l)"
*.host9.app[2].source.packetLength = 21B
*.host9.app[2].source.productionInterval = 1ms
*.host9.app[2].display-name = "type1_9"
*.host9.app[2].io.destPort = 1000
*.host9.app[3].typename = "UdpBasicApp"
*.host9.app[3].destAddresses = "host10"
*.host9.app[3].source.packetNameFormat = "%M-%m-%c"
*.host9.app[3].source.displayStringTextFormat = "sent %p pk (%l)"
*.host9.app[3].messageLength = 18B
*.host9.app[3].sendInterval = 1ms
*.host9.app[3].startTime = 5ms
*.host9.app[3].stopTime = 13ms
*.host9.app[3].display-name = "type2_4"
*.host9.app[3].destPort = 1000
*.host9.app[4].typename = "UdpBasicApp"
*.host9.app[4].destAddresses = "host10"
*.host9.app[4].source.packetNameFormat = "%M-%m-%c"
*.host9.app[4].source.displayStringTextFormat = "sent %p pk (%l)"
*.host9.app[4].messageLength = 18B
*.host9.app[4].sendInterval = 1ms
*.host9.app[4].startTime = 20ms
*.host9.app[4].stopTime = 24ms
*.host9.app[4].display-name = "type2_4"
*.host9.app[4].destPort = 1000
*.host9.app[5].typename = "UdpBasicApp"
*.host9.app[5].destAddresses = "host10"
*.host9.app[5].source.packetNameFormat = "%M-%m-%c"
*.host9.app[5].source.displayStringTextFormat = "sent %p pk (%l)"
*.host9.app[5].messageLength = 18B
*.host9.app[5].sendInterval = 1ms
*.host9.app[5].startTime = 35ms
*.host9.app[5].stopTime = 36ms
*.host9.app[5].display-name = "type2_4"
*.host9.app[5].destPort = 1000
*.host9.app[6].typename = "UdpBasicApp"
*.host9.app[6].destAddresses = "host10"
*.host9.app[6].source.packetNameFormat = "%M-%m-%c"
*.host9.app[6].source.displayStringTextFormat = "sent %p pk (%l)"
*.host9.app[6].messageLength = 18B
*.host9.app[6].sendInterval = 1ms
*.host9.app[6].startTime = 41ms
*.host9.app[6].stopTime = 42ms
*.host9.app[6].display-name = "type2_4"
*.host9.app[6].destPort = 1000
*.host9.app[7].typename = "UdpBasicApp"
*.host9.app[7].destAddresses = "host10"
*.host9.app[7].source.packetNameFormat = "%M-%m-%c"
*.host9.app[7].source.displayStringTextFormat = "sent %p pk (%l)"
*.host9.app[7].messageLength = 18B
*.host9.app[7].sendInterval = 1ms
*.host9.app[7].startTime = 52ms
*.host9.app[7].stopTime = 53ms
*.host9.app[7].display-name = "type2_4"
*.host9.app[7].destPort = 1000
*.host9.app[8].typename = "UdpBasicApp"
*.host9.app[8].destAddresses = "host10"
*.host9.app[8].source.packetNameFormat = "%M-%m-%c"
*.host9.app[8].source.displayStringTextFormat = "sent %p pk (%l)"
*.host9.app[8].messageLength = 18B
*.host9.app[8].sendInterval = 1ms
*.host9.app[8].startTime = 54ms
*.host9.app[8].stopTime = 57ms
*.host9.app[8].display-name = "type2_4"
*.host9.app[8].destPort = 1000
*.host9.app[9].typename = "UdpBasicApp"
*.host9.app[9].destAddresses = "host10"
*.host9.app[9].source.packetNameFormat = "%M-%m-%c"
*.host9.app[9].source.displayStringTextFormat = "sent %p pk (%l)"
*.host9.app[9].messageLength = 18B
*.host9.app[9].sendInterval = 1ms
*.host9.app[9].startTime = 66ms
*.host9.app[9].stopTime = 77ms
*.host9.app[9].display-name = "type2_4"
*.host9.app[9].destPort = 1000
*.host9.app[10].typename = "UdpBasicApp"
*.host9.app[10].destAddresses = "host10"
*.host9.app[10].source.packetNameFormat = "%M-%m-%c"
*.host9.app[10].source.displayStringTextFormat = "sent %p pk (%l)"
*.host9.app[10].messageLength = 18B
*.host9.app[10].sendInterval = 1ms
*.host9.app[10].startTime = 79ms
*.host9.app[10].stopTime = 83ms
*.host9.app[10].display-name = "type2_4"
*.host9.app[10].destPort = 1000
*.host9.app[11].typename = "UdpBasicApp"
*.host9.app[11].destAddresses = "host10"
*.host9.app[11].source.packetNameFormat = "%M-%m-%c"
*.host9.app[11].source.displayStringTextFormat = "sent %p pk (%l)"
*.host9.app[11].messageLength = 18B
*.host9.app[11].sendInterval = 1ms
*.host9.app[11].startTime = 87ms
*.host9.app[11].stopTime = 89ms
*.host9.app[11].display-name = "type2_4"
*.host9.app[11].destPort = 1000
*.host9.app[12].typename = "UdpBasicApp"
*.host9.app[12].destAddresses = "host10"
*.host9.app[12].source.packetNameFormat = "%M-%m-%c"
*.host9.app[12].source.displayStringTextFormat = "sent %p pk (%l)"
*.host9.app[12].messageLength = 18B
*.host9.app[12].sendInterval = 1ms
*.host9.app[12].startTime = 96ms
*.host9.app[12].stopTime = 100ms
*.host9.app[12].display-name = "type2_4"
*.host9.app[12].destPort = 1000
*.host9.app[13].typename = "UdpBasicApp"
*.host9.app[13].destAddresses = "host3"
*.host9.app[13].source.packetNameFormat = "%M-%m-%c"
*.host9.app[13].source.displayStringTextFormat = "sent %p pk (%l)"
*.host9.app[13].messageLength = 15B
*.host9.app[13].sendInterval = 1ms
*.host9.app[13].startTime = 8ms
*.host9.app[13].stopTime = 13ms
*.host9.app[13].display-name = "type2_7"
*.host9.app[13].destPort = 1001
*.host9.app[14].typename = "UdpBasicApp"
*.host9.app[14].destAddresses = "host3"
*.host9.app[14].source.packetNameFormat = "%M-%m-%c"
*.host9.app[14].source.displayStringTextFormat = "sent %p pk (%l)"
*.host9.app[14].messageLength = 15B
*.host9.app[14].sendInterval = 1ms
*.host9.app[14].startTime = 15ms
*.host9.app[14].stopTime = 19ms
*.host9.app[14].display-name = "type2_7"
*.host9.app[14].destPort = 1001
*.host9.app[15].typename = "UdpBasicApp"
*.host9.app[15].destAddresses = "host3"
*.host9.app[15].source.packetNameFormat = "%M-%m-%c"
*.host9.app[15].source.displayStringTextFormat = "sent %p pk (%l)"
*.host9.app[15].messageLength = 15B
*.host9.app[15].sendInterval = 1ms
*.host9.app[15].startTime = 21ms
*.host9.app[15].stopTime = 24ms
*.host9.app[15].display-name = "type2_7"
*.host9.app[15].destPort = 1001
*.host9.app[16].typename = "UdpBasicApp"
*.host9.app[16].destAddresses = "host3"
*.host9.app[16].source.packetNameFormat = "%M-%m-%c"
*.host9.app[16].source.displayStringTextFormat = "sent %p pk (%l)"
*.host9.app[16].messageLength = 15B
*.host9.app[16].sendInterval = 1ms
*.host9.app[16].startTime = 35ms
*.host9.app[16].stopTime = 36ms
*.host9.app[16].display-name = "type2_7"
*.host9.app[16].destPort = 1001
*.host9.app[17].typename = "UdpBasicApp"
*.host9.app[17].destAddresses = "host3"
*.host9.app[17].source.packetNameFormat = "%M-%m-%c"
*.host9.app[17].source.displayStringTextFormat = "sent %p pk (%l)"
*.host9.app[17].messageLength = 15B
*.host9.app[17].sendInterval = 1ms
*.host9.app[17].startTime = 41ms
*.host9.app[17].stopTime = 51ms
*.host9.app[17].display-name = "type2_7"
*.host9.app[17].destPort = 1001
*.host9.app[18].typename = "UdpBasicApp"
*.host9.app[18].destAddresses = "host3"
*.host9.app[18].source.packetNameFormat = "%M-%m-%c"
*.host9.app[18].source.displayStringTextFormat = "sent %p pk (%l)"
*.host9.app[18].messageLength = 15B
*.host9.app[18].sendInterval = 1ms
*.host9.app[18].startTime = 57ms
*.host9.app[18].stopTime = 66ms
*.host9.app[18].display-name = "type2_7"
*.host9.app[18].destPort = 1001
*.host9.app[19].typename = "UdpBasicApp"
*.host9.app[19].destAddresses = "host3"
*.host9.app[19].source.packetNameFormat = "%M-%m-%c"
*.host9.app[19].source.displayStringTextFormat = "sent %p pk (%l)"
*.host9.app[19].messageLength = 15B
*.host9.app[19].sendInterval = 1ms
*.host9.app[19].startTime = 67ms
*.host9.app[19].stopTime = 90ms
*.host9.app[19].display-name = "type2_7"
*.host9.app[19].destPort = 1001
*.host9.app[20].typename = "UdpSinkApp"
*.host9.app[20].io.localPort = 1002
*.host10.numApps = 7
*.host10.app[0].typename = "UdpSourceApp"
*.host10.app[0].io.destAddress = "host2"
*.host10.app[0].source.packetNameFormat = "%M-%m-%c"