[General]
network = TSN_multipath
sim-time-limit = 100ms
*.macForwardingTableConfigurator.typename = ""
*.*.hasStreamRedundancy = true
*.*.bridging.streamRelay.typename = "StreamRelayLayer"
*.*.bridging.streamCoder.typename = "StreamCoderLayer"
*.streamRedundancyConfigurator.typename = "StreamRedundancyConfigurator"
*.host0.eth[0].bitrate = 1000Mbps
*.switch0.eth[0].bitrate = 1000Mbps
*.switch0.eth[1].bitrate = 1200Mbps
*.switch0.eth[2].bitrate = 2200Mbps
*.switch0.eth[3].bitrate = 1500Mbps
*.switch0.eth[4].bitrate = 2300Mbps
*.switch0.eth[5].bitrate = 2300Mbps
*.switch0.eth[6].bitrate = 1600Mbps
*.switch0.eth[7].bitrate = 1900Mbps
*.switch0.eth[8].bitrate = 1400Mbps
*.switch0.eth[9].bitrate = 1900Mbps
*.switch0.eth[10].bitrate = 1800Mbps
*.switch0.eth[11].bitrate = 1800Mbps
*.switch0.eth[12].bitrate = 1300Mbps
*.switch0.eth[13].bitrate = 1400Mbps
*.host1.eth[0].bitrate = 1000Mbps
*.switch1.eth[0].bitrate = 1000Mbps
*.switch1.eth[1].bitrate = 1200Mbps
*.switch1.eth[2].bitrate = 1700Mbps
*.switch1.eth[3].bitrate = 1200Mbps
*.switch1.eth[4].bitrate = 1600Mbps
*.switch1.eth[5].bitrate = 2400Mbps
*.switch1.eth[6].bitrate = 2300Mbps
*.switch1.eth[7].bitrate = 1400Mbps
*.switch1.eth[8].bitrate = 1500Mbps
*.switch1.eth[9].bitrate = 1800Mbps
*.switch1.eth[10].bitrate = 2100Mbps
*.switch1.eth[11].bitrate = 2100Mbps
*.switch1.eth[12].bitrate = 1600Mbps
*.host2.eth[0].bitrate = 1000Mbps
*.switch2.eth[0].bitrate = 1000Mbps
*.switch2.eth[1].bitrate = 2000Mbps
*.switch2.eth[2].bitrate = 2000Mbps
*.switch2.eth[3].bitrate = 2400Mbps
*.switch2.eth[4].bitrate = 2200Mbps
*.switch2.eth[5].bitrate = 2200Mbps
*.switch2.eth[6].bitrate = 2400Mbps
*.switch2.eth[7].bitrate = 1600Mbps
*.switch2.eth[8].bitrate = 1500Mbps
*.switch2.eth[9].bitrate = 1600Mbps
*.switch2.eth[10].bitrate = 2400Mbps
*.switch2.eth[11].bitrate = 1800Mbps
*.switch2.eth[12].bitrate = 1500Mbps
*.switch2.eth[13].bitrate = 1200Mbps
*.switch2.eth[14].bitrate = 1600Mbps
*.switch2.eth[15].bitrate = 1400Mbps
*.switch2.eth[16].bitrate = 1900Mbps
*.switch2.eth[17].bitrate = 2000Mbps
*.host3.eth[0].bitrate = 1000Mbps
*.switch3.eth[0].bitrate = 1000Mbps
*.switch3.eth[1].bitrate = 1500Mbps
*.switch3.eth[2].bitrate = 1500Mbps
*.switch3.eth[3].bitrate = 2100Mbps
*.switch3.eth[4].bitrate = 2000Mbps
*.switch3.eth[5].bitrate = 1700Mbps
*.switch3.eth[6].bitrate = 1800Mbps
*.switch3.eth[7].bitrate = 1500Mbps
*.switch3.eth[8].bitrate = 1900Mbps
*.switch3.eth[9].bitrate = 1400Mbps
*.switch3.eth[10].bitrate = 1900Mbps
*.switch3.eth[11].bitrate = 1800Mbps
*.switch3.eth[12].bitrate = 2100Mbps
*.switch3.eth[13].bitrate = 2400Mbps
*.switch3.eth[14].bitrate = 1500Mbps
*.switch3.eth[15].bitrate = 1900Mbps
*.switch3.eth[16].bitrate = 2300Mbps
*.switch3.eth[17].bitrate = 2000Mbps
*.switch3.eth[18].bitrate = 1500Mbps
*.host4.eth[0].bitrate = 1000Mbps
*.switch4.eth[0].bitrate = 1000Mbps
*.switch4.eth[1].bitrate = 2200Mbps
*.switch4.eth[2].bitrate = 1700Mbps
*.switch4.eth[3].bitrate = 2000Mbps
*.switch4.eth[4].bitrate = 2100Mbps
*.switch4.eth[5].bitrate = 1900Mbps
*.switch4.eth[6].bitrate = 1200Mbps
*.switch4.eth[7].bitrate = 1900Mbps
*.switch4.eth[8].bitrate = 2100Mbps
*.switch4.eth[9].bitrate = 1900Mbps
*.switch4.eth[10].bitrate = 1700Mbps
*.switch4.eth[11].bitrate = 1400Mbps
*.switch4.eth[12].bitrate = 1500Mbps
*.switch4.eth[13].bitrate = 1200Mbps
*.switch4.eth[14].bitrate = 2100Mbps
*.switch4.eth[15].bitrate = 1400Mbps
*.switch4.eth[16].bitrate = 2100Mbps
*.switch4.eth[17].bitrate = 2400Mbps
*.switch4.eth[18].bitrate = 1300Mbps
*.host5.eth[0].bitrate = 1000Mbps
*.switch5.eth[0].bitrate = 1000Mbps
*.switch5.eth[1].bitrate = 1500Mbps
*.switch5.eth[2].bitrate = 2000Mbps
*.switch5.eth[3].bitrate = 2200Mbps
*.switch5.eth[4].bitrate = 2200Mbps
*.switch5.eth[5].bitrate = 1500Mbps
*.switch5.eth[6].bitrate = 2200Mbps
*.switch5.eth[7].bitrate = 1700Mbps
*.switch5.eth[8].bitrate = 1200Mbps
*.switch5.eth[9].bitrate = 1400Mbps
*.switch5.eth[10].bitrate = 1300Mbps
*.switch5.eth[11].bitrate = 2300Mbps
*.switch5.eth[12].bitrate = 1900Mbps
*.host6.eth[0].bitrate = 1000Mbps
*.switch6.eth[0].bitrate = 1000Mbps
*.switch6.eth[1].bitrate = 2400Mbps
*.switch6.eth[2].bitrate = 2000Mbps
*.switch6.eth[3].bitrate = 1400Mbps
*.switch6.eth[4].bitrate = 1600Mbps
*.switch6.eth[5].bitrate = 1800Mbps
*.switch6.eth[6].bitrate = 1200Mbps
*.switch6.eth[7].bitrate = 2000Mbps
*.switch6.eth[8].bitrate = 2100Mbps
*.switch6.eth[9].bitrate = 1500Mbps
*.switch6.eth[10].bitrate = 2000Mbps
*.switch6.eth[11].bitrate = 2300Mbps
*.switch6.eth[12].bitrate = 2000Mbps
*.switch6.eth[13].bitrate = 1500Mbps
*.switch6.eth[14].bitrate = 2200Mbps
*.switch6.eth[15].bitrate = 1200Mbps
*.host7.eth[0].bitrate = 1000Mbps
*.switch7.eth[0].bitrate = 1000Mbps
*.switch7.eth[1].bitrate = 1200Mbps
*.switch7.eth[2].bitrate = 2200Mbps
*.switch7.eth[3].bitrate = 2200Mbps
*.switch7.eth[4].bitrate = 1800Mbps
*.switch7.eth[5].bitrate = 1400Mbps
*.switch7.eth[6].bitrate = 1800Mbps
*.switch7.eth[7].bitrate = 2200Mbps
*.switch7.eth[8].bitrate = 2400Mbps
*.switch7.eth[9].bitrate = 1200Mbps
*.switch7.eth[10].bitrate = 1700Mbps
*.switch7.eth[11].bitrate = 1900Mbps
*.switch7.eth[12].bitrate = 2200Mbps
*.switch7.eth[13].bitrate = 2300Mbps
*.switch7.eth[14].bitrate = 2100Mbps
*.host8.eth[0].bitrate = 1000Mbps
*.switch8.eth[0].bitrate = 1000Mbps
*.switch8.eth[1].bitrate = 2300Mbps
*.switch8.eth[2].bitrate = 1700Mbps
*.switch8.eth[3].bitrate = 2100Mbps
*.switch8.eth[4].bitrate = 2000Mbps
*.switch8.eth[5].bitrate = 1900Mbps
*.switch8.eth[6].bitrate = 1800Mbps
*.switch8.eth[7].bitrate = 2200Mbps
*.switch8.eth[8].bitrate = 1300Mbps
*.switch8.eth[9].bitrate = 1600Mbps
*.switch8.eth[10].bitrate = 1500Mbps
*.switch8.eth[11].bitrate = 2000Mbps
*.switch8.eth[12].bitrate = 2000Mbps
*.switch8.eth[13].bitrate = 1800Mbps
*.switch8.eth[14].bitrate = 2000Mbps
*.switch8.eth[15].bitrate = 1500Mbps
*.host9.eth[0].bitrate = 1000Mbps
*.switch9.eth[0].bitrate = 1000Mbps
*.switch9.eth[1].bitrate = 1400Mbps
*.switch9.eth[2].bitrate = 1900Mbps
*.switch9.eth[3].bitrate = 1800Mbps
*.switch9.eth[4].bitrate = 1200Mbps
*.switch9.eth[5].bitrate = 2300Mbps
*.switch9.eth[6].bitrate = 1900Mbps
*.host10.eth[0].bitrate = 1000Mbps
*.switch10.eth[0].bitrate = 1000Mbps
*.switch10.eth[1].bitrate = 2300Mbps
*.switch10.eth[2].bitrate = 1600Mbps
*.switch10.eth[3].bitrate = 2200Mbps
*.switch10.eth[4].bitrate = 1800Mbps
*.switch10.eth[5].bitrate = 2200Mbps
*.switch10.eth[6].bitrate = 1900Mbps
*.switch10.eth[7].bitrate = 2100Mbps
*.switch10.eth[8].bitrate = 2100Mbps
*.switch10.eth[9].bitrate = 1700Mbps
*.switch10.eth[10].bitrate = 1600Mbps
*.switch10.eth[11].bitrate = 1900Mbps
*.switch10.eth[12].bitrate = 1600Mbps
*.switch10.eth[13].bitrate = 1900Mbps
*.switch10.eth[14].bitrate = 2200Mbps
*.switch10.eth[15].bitrate = 2300Mbps
*.switch10.eth[16].bitrate = 1500Mbps
*.host11.eth[0].bitrate = 1000Mbps
*.switch11.eth[0].bitrate = 1000Mbps
*.switch11.eth[1].bitrate = 2400Mbps
*.switch11.eth[2].bitrate = 1500Mbps
*.switch11.eth[3].bitrate = 2100Mbps
*.switch11.eth[4].bitrate = 1400Mbps
*.switch11.eth[5].bitrate = 1800Mbps
*.switch11.eth[6].bitrate = 2100Mbps
*.switch11.eth[7].bitrate = 2400Mbps
*.switch11.eth[8].bitrate = 2100Mbps
*.switch11.eth[9].bitrate = 2000Mbps
*.switch11.eth[10].bitrate = 1900Mbps
*.switch11.eth[11].bitrate = 1800Mbps
*.switch11.eth[12].bitrate = 2000Mbps
*.switch11.eth[13].bitrate = 1600Mbps
*.switch11.eth[14].bitrate = 1200Mbps
*.switch11.eth[15].bitrate = 1400Mbps
*.switch11.eth[16].bitrate = 1800Mbps
*.switch11.eth[17].bitrate = 2200Mbps
*.switch11.eth[18].bitrate = 1500Mbps
*.switch11.eth[19].bitrate = 1800Mbps
*.switch11.eth[20].bitrate = 1300Mbps
*.switch11.eth[21].bitrate = 1600Mbps
*.switch11.eth[22].bitrate = 2200Mbps
*.switch11.eth[23].bitrate = 1500Mbps
*.switch11.eth[24].bitrate = 2100Mbps
*.switch11.eth[25].bitrate = 1600Mbps
*.host12.eth[0].bitrate = 1000Mbps
*.switch12.eth[0].bitrate = 1000Mbps
*.switch12.eth[1].bitrate = 2400Mbps
*.switch12.eth[2].bitrate = 1900Mbps
*.switch12.eth[3].bitrate = 1500Mbps
*.switch12.eth[4].bitrate = 1800Mbps
*.switch12.eth[5].bitrate = 1800Mbps
*.switch12.eth[6].bitrate = 2000Mbps
*.switch12.eth[7].bitrate = 1500Mbps
*.switch12.eth[8].bitrate = 2200Mbps
*.switch12.eth[9].bitrate = 1500Mbps
*.switch12.eth[10].bitrate = 1200Mbps
*.switch12.eth[11].bitrate = 2200Mbps
*.switch12.eth[12].bitrate = 1300Mbps
*.switch12.eth[13].bitrate = 1600Mbps
*.switch12.eth[14].bitrate = 1400Mbps
*.switch12.eth[15].bitrate = 1800Mbps
*.switch12.eth[16].bitrate = 1200Mbps
*.switch12.eth[17].bitrate = 1600Mbps
*.switch12.eth[18].bitrate = 2100Mbps
*.switch12.eth[19].bitrate = 1700Mbps
*.switch12.eth[20].bitrate = 1900Mbps
*.host13.eth[0].bitrate = 1000Mbps
*.switch13.eth[0].bitrate = 1000Mbps
*.switch13.eth[1].bitrate = 2200Mbps
*.switch13.eth[2].bitrate = 1600Mbps
*.switch13.eth[3].bitrate = 1600Mbps
*.switch13.eth[4].bitrate = 1600Mbps
*.switch13.eth[5].bitrate = 1800Mbps
*.switch13.eth[6].bitrate = 1400Mbps
*.switch13.eth[7].bitrate = 1500Mbps
*.switch13.eth[8].bitrate = 2300Mbps
*.switch13.eth[9].bitrate = 2100Mbps
*.switch13.eth[10].bitrate = 1300Mbps
*.switch13.eth[11].bitrate = 2400Mbps
*.switch13.eth[12].bitrate = 1300Mbps
*.host14.eth[0].bitrate = 1000Mbps
*.switch14.eth[0].bitrate = 1000Mbps
*.switch14.eth[1].bitrate = 1600Mbps
*.switch14.eth[2].bitrate = 1700Mbps
*.switch14.eth[3].bitrate = 1500Mbps
*.switch14.eth[4].bitrate = 2200Mbps
*.switch14.eth[5].bitrate = 1200Mbps
*.switch14.eth[6].bitrate = 1400Mbps
*.switch14.eth[7].bitrate = 1300Mbps
*.switch14.eth[8].bitrate = 1900Mbps
*.switch14.eth[9].bitrate = 2000Mbps
*.switch14.eth[10].bitrate = 1600Mbps
*.switch14.eth[11].bitrate = 2400Mbps
*.switch14.eth[12].bitrate = 1400Mbps
*.switch14.eth[13].bitrate = 2100Mbps
*.switch14.eth[14].bitrate = 2200Mbps
*.switch14.eth[15].bitrate = 1700Mbps
*.host15.eth[0].bitrate = 1000Mbps
*.switch15.eth[0].bitrate = 1000Mbps
*.switch15.eth[1].bitrate = 1500Mbps
*.switch15.eth[2].bitrate = 1400Mbps
*.switch15.eth[3].bitrate = 1700Mbps
*.switch15.eth[4].bitrate = 2000Mbps
*.switch15.eth[5].bitrate = 1400Mbps
*.switch15.eth[6].bitrate = 1800Mbps
*.switch15.eth[7].bitrate = 1400Mbps
*.switch15.eth[8].bitrate = 2100Mbps
*.switch15.eth[9].bitrate = 1200Mbps
*.switch15.eth[10].bitrate = 2100Mbps
*.host16.eth[0].bitrate = 1000Mbps
*.switch16.eth[0].bitrate = 1000Mbps
*.switch16.eth[1].bitrate = 2300Mbps
*.switch16.eth[2].bitrate = 1600Mbps
*.switch16.eth[3].bitrate = 1300Mbps
*.switch16.eth[4].bitrate = 1800Mbps
*.switch16.eth[5].bitrate = 1200Mbps
*.switch16.eth[6].bitrate = 1400Mbps
*.switch16.eth[7].bitrate = 2200Mbps
*.switch16.eth[8].bitrate = 2000Mbps
*.switch16.eth[9].bitrate = 2300Mbps
*.switch16.eth[10].bitrate = 2200Mbps
*.switch16.eth[11].bitrate = 2100Mbps
*.switch16.eth[12].bitrate = 1500Mbps
*.switch16.eth[13].bitrate = 2000Mbps
*.host17.eth[0].bitrate = 1000Mbps
*.switch17.eth[0].bitrate = 1000Mbps
*.switch17.eth[1].bitrate = 1400Mbps
*.switch17.eth[2].bitrate = 2400Mbps
*.switch17.eth[3].bitrate = 1900Mbps
*.switch17.eth[4].bitrate = 1500Mbps
*.switch17.eth[5].bitrate = 1200Mbps
*.switch17.eth[6].bitrate = 2200Mbps
*.switch17.eth[7].bitrate = 2200Mbps
*.switch17.eth[8].bitrate = 1600Mbps
*.switch17.eth[9].bitrate = 2100Mbps
*.switch17.eth[10].bitrate = 2000Mbps
*.switch17.eth[11].bitrate = 2300Mbps
*.switch17.eth[12].bitrate = 2100Mbps
*.switch17.eth[13].bitrate = 1300Mbps
*.switch17.eth[14].bitrate = 1200Mbps
*.switch17.eth[15].bitrate = 2300Mbps
*.switch17.eth[16].bitrate = 1800Mbps
*.switch17.eth[17].bitrate = 1500Mbps
*.switch17.eth[18].bitrate = 1500Mbps
*.switch17.eth[19].bitrate = 2200Mbps
*.switch17.eth[20].bitrate = 2100Mbps
*.switch17.eth[21].bitrate = 1500Mbps
*.switch17.eth[22].bitrate = 1200Mbps
*.switch17.eth[23].bitrate = 1200Mbps
*.switch17.eth[24].bitrate = 1500Mbps
*.switch17.eth[25].bitrate = 1200Mbps
*.host18.eth[0].bitrate = 1000Mbps
*.switch18.eth[0].bitrate = 1000Mbps
*.switch18.eth[1].bitrate = 1400Mbps
*.switch18.eth[2].bitrate = 2300Mbps
*.switch18.eth[3].bitrate = 2400Mbps
*.switch18.eth[4].bitrate = 1900Mbps
*.switch18.eth[5].bitrate = 1500Mbps
*.switch18.eth[6].bitrate = 2100Mbps
*.switch18.eth[7].bitrate = 1300Mbps
*.switch18.eth[8].bitrate = 1200Mbps
*.switch18.eth[9].bitrate = 1600Mbps
*.switch18.eth[10].bitrate = 2000Mbps
*.switch18.eth[11].bitrate = 2400Mbps
*.switch18.eth[12].bitrate = 2300Mbps
*.switch18.eth[13].bitrate = 2100Mbps
*.switch18.eth[14].bitrate = 2000Mbps
*.switch18.eth[15].bitrate = 2100Mbps
*.switch18.eth[16].bitrate = 1700Mbps
*.switch18.eth[17].bitrate = 1300Mbps
*.switch18.eth[18].bitrate = 1700Mbps
*.switch18.eth[19].bitrate = 1200Mbps
*.switch18.eth[20].bitrate = 2000Mbps
*.switch18.eth[21].bitrate = 1500Mbps
*.switch18.eth[22].bitrate = 1900Mbps
*.host19.eth[0].bitrate = 1000Mbps
*.switch19.eth[0].bitrate = 1000Mbps
*.switch19.eth[1].bitrate = 1600Mbps
*.switch19.eth[2].bitrate = 1800Mbps
*.switch19.eth[3].bitrate = 1200Mbps
*.switch19.eth[4].bitrate = 1800Mbps
*.switch19.eth[5].bitrate = 1200Mbps
*.switch19.eth[6].bitrate = 1900Mbps
*.switch19.eth[7].bitrate = 1400Mbps
*.switch19.eth[8].bitrate = 1500Mbps
*.switch19.eth[9].bitrate = 1300Mbps
*.switch19.eth[10].bitrate = 1900Mbps
*.switch19.eth[11].bitrate = 1500Mbps
*.switch19.eth[12].bitrate = 1900Mbps
*.switch19.eth[13].bitrate = 1600Mbps
*.switch19.eth[14].bitrate = 1900Mbps
*.switch19.eth[15].bitrate = 2100Mbps
*.switch19.eth[16].bitrate = 1200Mbps
*.host0.numApps = 9
*.host0.app[0].typename = "UdpSinkApp"
*.host0.app[0].io.localPort = 1000
*.host0.app[1].typename = "UdpSourceApp"
*.host0.app[1].io.destAddress = "host9"
*.host0.app[1].source.packetNameFormat = "%M-%m-%c"
*.host0.app[1].source.displayStringTextFormat = "sent %p pk (%l)"
*.host0.app[1].source.packetLength = 22B
*.host0.app[1].source.productionInterval = 1ms
*.host0.app[1].display-name = "type1_6"
*.host0.app[1].io.destPort = 1000
*.host0.app[2].typename = "UdpBasicApp"
*.host0.app[2].destAddresses = "host7"
*.host0.app[2].source.packetNameFormat = "%M-%m-%c"
*.host0.app[2].source.displayStringTextFormat = "sent %p pk (%l)"
*.host0.app[2].messageLength = 14B
*.host0.app[2].sendInterval = 1ms
*.host0.app[2].startTime = 13ms
*.host0.app[2].stopTime = 14ms
*.host0.app[2].display-name = "type2_5"
*.host0.app[2].destPort = 1000
*.host0.app[3].typename = "UdpBasicApp"
*.host0.app[3].destAddresses = "host7"
*.host0.app[3].source.packetNameFormat = "%M-%m-%c"
*.host0.app[3].source.displayStringTextFormat = "sent %p pk (%l)"
*.host0.app[3].messageLength = 14B
*.host0.app[3].sendInterval = 1ms
*.host0.app[3].startTime = 21ms
*.host0.app[3].stopTime = 25ms
*.host0.app[3].display-name = "type2_5"
*.host0.app[3].destPort = 1000
*.host0.app[4].typename = "UdpBasicApp"
*.host0.app[4].destAddresses = "host7"
*.host0.app[4].source.packetNameFormat = "%M-%m-%c"
*.host0.app[4].source.displayStringTextFormat = "sent %p pk (%l)"
*.host0.app[4].messageLength = 14B
*.host0.app[4].sendInterval = 1ms
*.host0.app[4].startTime = 59ms
*.host0.app[4].stopTime = 64ms
*.host0.app[4].display-name = "type2_5"
*.host0.app[4].destPort = 1000
*.host0.app[5].typename = "UdpBasicApp"
*.host0.app[5].destAddresses = "host7"
*.host0.app[5].source.packetNameFormat = "%M-%m-%c"
*.host0.app[5].source.displayStringTextFormat = "sent %p pk (%l)"
*.host0.app[5].messageLength = 14B
*.host0.app[5].sendInterval = 1ms
*.host0.app[5].startTime = 67ms
*.host0.app[5].stopTime = 77ms
*.host0.app[5].display-name = "type2_5"
*.host0.app[5].destPort = 1000
*.host0.app[6].typename = "UdpBasicApp"
*.host0.app[6].destAddresses = "host7"
*.host0.app[6].source.packetNameFormat = "%M-%m-%c"
*.host0.app[6].source.displayStringTextFormat = "sent %p pk (%l)"
*.host0.app[6].messageLength = 14B
*.host0.app[6].sendInterval = 1ms
*.host0.app[6].startTime = 84ms
*.host0.app[6].stopTime = 85ms
*.host0.app[6].display-name = "type2_5"
*.host0.app[6].destPort = 1000
*.host0.app[7].typename = "UdpBasicApp"
*.host0.app[7].destAddresses = "host7"
*.host0.app[7].source.packetNameFormat = "%M-%m-%c"
*.host0.app[7].source.displayStringTextFormat = "sent %p pk (%l)"
*.host0.app[7].messageLength = 14B
*.host0.app[7].sendInterval = 1ms
*.host0.app[7].startTime = 86ms
*.host0.app[7].stopTime = 94ms
*.host0.app[7].display-name = "type2_5"
*.host0.app[7].destPort = 1000
*.host0.app[8].typename = "UdpBasicApp"
*.host0.app[8].destAddresses = "host7"
*.host0.app[8].source.packetNameFormat = "%M-%m-%c"
*.host0.app[8].source.displayStringTextFormat = "sent %p pk (%l)"
*.host0.app[8].messageLength = 14B
*.host0.app[8].sendInterval = 1ms
*.host0.app[8].startTime = 96ms
*.host0.app[8].stopTime = 100ms
*.host0.app[8].display-name = "type2_5"
*.host0.app[8].destPort = 1000
*.host1.numApps = 3
*.host1.app[0].typename = "UdpSourceApp"
*.host1.app[0].io.destAddress = "host12"
*.host1.app[0].source.packetNameFormat = "%M-%m-%c"
*.host1.app[0].source.displayStringTextFormat = "sent %p pk (%l)"
*.host1.app[0].source.packetLength = 14B
*.host1.app[0].source.productionInterval = 1ms
*.host1.app[0].display-name = "type1_2"
*.host1.app[0].io.destPort = 1001
*.host1.app[1].typename = "UdpSourceApp"
*.host1.app[1].io.destAddress = "host18"
*.host1.app[1].source.packetNameFormat = "%M-%m-%c"
*.host1.app[1].source.displayStringTextFormat = "sent %p pk (%l)"
*.host1.app[1].source.packetLength = 19B
*.host1.app[1].source.productionInterval = 1ms
*.host1.app[1].display-name = "type1_4"
*.host1.app[1].io.destPort = 1000
*.host1.app[2].typename = "UdpSinkApp"
*.host1.app[2].io.localPort = 1000
*.host2.numApps = 2
*.host2.app[0].typename = "UdpSinkApp"
*.host2.app[0].io.localPort = 1000
*.host2.app[1].typename = "UdpSinkApp"
*.host2.app[1].io.localPort = 1001
*.host3.numApps = 0
*.host4.numApps = 1
*.host4.app[0].typename = "UdpSinkApp"
*.host4.app[0].io.localPort = 1000
*.host5.numApps = 0
*.host6.numApps = 1
*.host6.app[0].typename = "UdpSinkApp"
*.host6.app[0].io.localPort = 1000
*.host7.numApps = 10
*.host7.app[0].typename = "UdpBasicApp"
*.host7.app[0].destAddresses = "host10"
*.host7.app[0].source.packetNameFormat = "%M-%m-%c"
*.host7.app[0].source.displayStringTextFormat = "sent %p pk (%l)"
*.host7.app[0].messageLength = 15B
*.host7.app[0].sendInterval = 1ms
*.host7.app[0].startTime = 10ms
*.host7.app[0].stopTime = 11ms
*.host7.app[0].display-name = "type2_1"
*.host7.app[0].destPort = 1000
*.host7.app[1].typename = "UdpBasicApp"
*.host7.app[1].destAddresses = "host10"
*.host7.app[1].source.packetNameFormat = "%M-%m-%c"
*.host7.app[1].source.displayStringTextFormat = "sent %p pk (%l)"
*.host7.app[1].messageLength = 15B
*.host7.app[1].sendInterval = 1ms
*.host7.app[1].startTime = 24ms
*.host7.app[1].stopTime = 26ms
*.host7.app[1].display-name = "type2_1"
*.host7.app[1].destPort = 1000
*.host7.app[2].typename = "UdpBasicApp"
*.host7.app[2].destAddresses = "host10"
*.host7.app[2].source.packetNameFormat = "%M-%m-%c"
*.host7.app[2].source.displayStringTextFormat = "sent %p pk (%l)"
*.host7.app[2].messageLength = 15B
*.host7.app[2].sendInterval = 1ms
*.host7.app[2].startTime = 32ms
*.host7.app[2].stopTime = 37ms
*.host7.app[2].display-name = "type2_1"
*.host7.app[2].destPort = 1000
*.host7.app[3].typename = "UdpBasicApp"
*.host7.app[3].destAddresses = "host10"
*.host7.app[3].source.packetNameFormat = "%M-%m-%c"
*.host7.app[3].source.displayStringTextFormat = "sent %p pk (%l)"
*.host7.app[3].messageLength = 15B
*.host7.app[3].sendInterval = 1ms
*.host7.app[3].startTime = 39ms
*.host7.app[3].stopTime = 49ms
*.host7.app[3].display-name = "type2_1"
*.host7.app[3].destPort = 1000
*.host7.app[4].typename = "UdpBasicApp"
*.host7.app[4].destAddresses = "host10"
*.host7.app[4].source.packetNameFormat = "%M-%m-%c"
*.host7.app[4].source.displayStringTextFormat = "sent %p pk (%l)"
*.host7.app[4].messageLength = 15B
*.host7.app[4].sendInterval = 1ms
*.host7.app[4].startTime = 56ms
*.host7.app[4].stopTime = 65ms
*.host7.app[4].display-name = "type2_1"
*.host7.app[4].destPort = 1000
*.host7.app[5].typename = "UdpBasicApp"
*.host7.app[5].destAddresses = "host10"
*.host7.app[5].source.packetNameFormat = "%M-%m-%c"
*.host7.app[5].source.displayStringTextFormat = "sent %p pk (%l)"
*.host7.app[5].messageLength = 15B
*.host7.app[5].sendInterval = 1ms
*.host7.app[5].startTime = 66ms
*.host7.app[5].stopTime = 68ms
*.host7.app[5].display-name = "type2_1"
*.host7.app[5].destPort = 1000
*.host7.app[6].typename = "UdpBasicApp"
*.host7.app[6].destAddresses = "host10"
*.host7.app[6].source.packetNameFormat = "%M-%m-%c"
*.host7.app[6].source.displayStringTextFormat = "sent %p pk (%l)"
*.host7.app[6].messageLength = 15B
*.host7.app[6].sendInterval = 1ms
*.host7.app[6].startTime = 71ms
*.host7.app[6].stopTime = 74ms
*.host7.app[6].display-name = "type2_1"
*.host7.app[6].destPort = 1000
*.host7.app[7].typename = "UdpBasicApp"
*.host7.app[7].destAddresses = "host10"
*.host7.app[7].source.packetNameFormat = "%M-%m-%c"
*.host7.app[7].source.displayStringTextFormat = "sent %p pk (%l)"
*.host7.app[7].messageLength = 15B
*.host7.app[7].sendInterval = 1ms
*.host7.app[7].startTime = 88ms
*.host7.app[7].stopTime = 92ms
*.host7.app[7].display-name = "type2_1"
*.host7.app[7].destPort = 1000
*.host7.app[8].typename = "UdpBasicApp"
*.host7.app[8].destAddresses = "host10"
*.host7.app[8].source.packetNameFormat = "%M-%m-%c"
*.host7.app[8].source.displayStringTextFormat = "sent %p pk (%l)"
*.host7.app[8].messageLength = 15B
*.host7.app[8].sendInterval = 1ms
*.host7.app[8].startTime = 94ms
*.host7.app[8].stopTime = 100ms
*.host7.app[8].display-name = "type2_1"
*.host7.app[8].destPort = 1000
*.host7.app[9].typename = "UdpSinkApp"
*.host7.app[9].io.localPort = 1000
*.host8.numApps = 2
*.host8.app[0].typename = "UdpSourceApp"
*.host8.app[0].io.destAddress = "host2"
*.host8.app[0].source.packetNameFormat = "%M-%m-%c"
*.host8.app[0].source.displayStringTextFormat = "sent %p pk (%l)"
*.host8.app[0].source.packetLength = 21B
*.host8.app[0].source.productionInterval = 1ms
*.host8.app[0].display-name = "type1_9"
*.host8.app[0].io.destPort = 1000
*.host8.app[1].typename = "UdpSinkApp"
*.host8.app[1].io.localPort = 1000
*.host9.numApps = 1
*.host9.app[0].typename = "UdpSinkApp"
*.host9.app[0].io.localPort = 1000
*.host10.numApps = 14
*.host10.app[0].typename = "UdpSourceApp"
*.host10.app[0].io.destAddress = "host12"
*.host10.app[0].source.packetNameFormat = "%M-%m-%c"
*.host10.app[0].source.displayStringTextFormat = "sent %p pk (%l)"
*.host10.app[0].source.packetLength = 13B
*.host10.app[0].source.productionInterval = 1ms
*.host10.app[0].display-name = "type1_0"
*.host10.app[0].io.destPort = 1000
*.host10.app[1].typename = "UdpSinkApp"
*.host10.app[1].io.localPort = 1000
*.host10.app[2].typename = "UdpBasicApp"
*.host10.app[2].destAddresses = "host13"
*.host10.app[2].source.packetNameFormat = "%M-%m-%c"
*.host10.app[2].source.displayStringTextFormat = "sent %p pk (%l)"
*.host10.app[2].messageLength = 15B
*.host10.app[2].sendInterval = 1ms
*.host10.app[2].startTime = 11ms
*.host10.app[2].stopTime = 20ms
*.host10.app[2].display-name = "type2_7"
*.host10.app[2].destPort = 1002
*.host10.app[3].typename = "UdpBasicApp"
*.host10.app[3].destAddresses = "host13"
*.host10.app[3].source.packetNameFormat = "%M-%m-%c"
*.host10.app[3].source.displayStringTextFormat = "sent %p pk (%l)"
*.host10.app[3].messageLength = 15B
*.host10.app[3].sendInterval = 1ms
*.host10.app[3].startTime = 24ms
*.host10.app[3].stopTime = 28ms
*.host10.app[3].display-name = "type2_7"
*.host10.app[3].destPort = 1002
*.host10.app[4].typename = "UdpBasicApp"
*.host10.app[4].destAddresses = "host13"
*.host10.app[4].source.packetNameFormat = "%M-%m-%c"
*.host10.app[4].source.displayStringTextFormat = "sent %p pk (%l)"
*.host10.app[4].messageLength = 15B
*.host10.app[4].sendInterval = 1ms
*.host10.app[4].startTime = 32ms
*.host10.app[4].stopTime = 36ms
*.host10.app[4].display-name = "type2_7"
*.host10.app[4].destPort = 1002
*.host10.app[5].typename = "UdpBasicApp"
*.host10.app[5].destAddresses = "host13"
*.host10.app[5].source.packetNameFormat = "%M-%m-%c"
*.host10.app[5].source.displayStringTextFormat = "sent %p pk (%l)"
*.host10.app[5].messageLength = 15B
*.host10.app[5].sendInterval = 1ms
*.host10.app[5].startTime = 41ms
*.host10.app[5].stopTime = 42ms
*.host10.app[5].display-name = "type2_7"
*.host10.app[5].destPort = 1002
*.host10.app[6].typename = "UdpBasicApp"
*.host10.app[6].destAddresses = "host13"
*.host10.app[6].source.packetNameFormat = "%M-%m-%c"
*.host10.app[6].source.displayStringTextFormat = "sent %p pk (%l)"
*.host10.app[6].messageLength = 15B
*.host10.app[6].sendInterval = 1ms
*.host10.app[6].startTime = 46ms
*.host10.app[6].stopTime = 53ms
*.host10.app[6].display-name = "type2_7"
*.host10.app[6].destPort = 1002
*.host10.app[7].typename = "UdpBasicApp"
*.host10.app[7].destAddresses = "host13"
*.host10.app[7].source.packetNameFormat = "%M-%m-%c"
*.host10.app[7].source.displayStringTextFormat = "sent %p pk (%l)"
*.host10.app[7].messageLength = 15B
*.host10.app[7].sendInterval = 1ms
*.host10.app[7].startTime = 79ms
*.host10.app[7].stopTime = 98ms
*.host10.app[7].display-name = "type2_7"
*.host10.app[7].destPort = 1002
*.host10.app[8].typename = "UdpBasicApp"
*.host10.app[8].destAddresses = "host13"
*.host10.app[8].source.packetNameFormat = "%M-%m-%c"
*.host10.app[8].source.displayStringTextFormat = "sent %p pk (%l)"
*.host10.app[8].messageLength = 15B
*.host10.app[8].sendInterval = 1ms
*.host10.app[8].startTime = 99ms
*.host10.app[8].stopTime = 100ms
*.host10.app[8].display-name = "type2_7"
*.host10.app[8].destPort = 1002
*.host10.app[9].typename = "UdpBasicApp"
*.host10.app[9].destAddresses = "host11"
*.host10.app[9].source.packetNameFormat = "%M-%m-%c"
*.host10.app[9].source.displayStringTextFormat = "sent %p pk (%l)"
*.host10.app[9].messageLength = 20B
*.host10.app[9].sendInterval = 1ms
*.host10.app[9].startTime = 1ms
*.host10.app[9].stopTime = 13ms
*.host10.app[9].display-name = "type2_9"
*.host10.app[9].destPort = 1000
*.host10.app[10].typename = "UdpBasicApp"
*.host10.app[10].destAddresses = "host11"
*.host10.app[10].source.packetNameFormat = "%M-%m-%c"
*.host10.app[10].source.displayStringTextFormat = "sent %p pk (%l)"
*.host10.app[10].messageLength = 20B
*.host10.app[10].sendInterval = 1ms
*.host10.app[10].startTime = 27ms
*.host10.app[10].stopTime = 34ms
*.host10.app[10].display-name = "type2_9"
*.host10.app[10].destPort = 1000
*.host10.app[11].typename = "UdpBasicApp"
*.host10.app[11].destAddresses = "host11"
*.host10.app[11].source.packetNameFormat = "%M-%m-%c"
*.host10.app[11].source.displayStringTextFormat = "sent %p pk (%l)"
*.host10.app[11].messageLength = 20B
*.host10.app[11].sendInterval = 1ms
*.host10.app[11].startTime = 41ms
*.host10.app[11].stopTime = 72ms
*.host10.app[11].display-name = "type2_9"
*.host10.app[11].destPort = 1000
*.host10.app[12].typename = "UdpBasicApp"
*.host10.app[12].destAddresses = "host11"
*.host10.app[12].source.packetNameFormat = "%M-%m-%c"
*.host10.app[12].source.displayStringTextFormat = "sent %p pk (%l)"
*.host10.app[12].messageLength = 20B
*.host10.app[12].sendInterval = 1ms
*.host10.app[12].startTime = 76ms
*.host10.app[12].stopTime = 84ms
*.host10.app[12].display-name = "type2_9"
*.host10.app[12].destPort = 1000
*.host10.app[13].typename = "UdpBasicApp"
*.host10.app[13].destAddresses = "host11"
*.host10.app[13].source.packetNameFormat = "%M-%m-%c"
*.host10.app[13].source.displayStringTextFormat = "sent %p pk (%l)"
*.host10.app[13].messageLength = 20B
*.host10.app[13].sendInterval = 1ms
*.host10.app[13].startTime = 95ms
*.host10.app[13].stopTime = 100ms
*.host10.app[13].display-name = "type2_9"
*.host10.app[13].destPort = 1000
*.host11.numApps = 3
*.host11.app[0].typename = "UdpSourceApp"
*.host11.app[0].io.destAddress = "host16"
*.host11.app[0].source.packetNameFormat = "%M-%m-%c"
*.host11.app[0].source.displayStringTextFormat = "sent %p pk (%l)"
*.host11.app[0].source.packetLength = 15B
*.host11.app[0].source.productionInterval = 1ms
*.host11.app[0].display-name = "type1_5"
*.host11.app[0].io.destPort = 1000
*.host11.app[1].typename = "UdpSourceApp"
*.host11.app[1].io.destAddress = "host12"
*.host11.app[1].source.packetNameFormat = "%M-%m-%c"
*.host11.app[1].source.displayStringTextFormat = "sent %p pk (%l)"
*.host11.app[1].source.packetLength = 12B
*.host11.app[1].source.productionInterval = 1ms
*.host11.app[1].display-name = "type1_7"
*.host11.app[1].io.destPort = 1002
*.host11.app[2].typename = "UdpSinkApp"
*.host11.app[2].io.localPort = 1000
*.host12.numApps = 7
*.host12.app[0].typename = "UdpSinkApp"
*.host12.app[0].io.localPort = 1000
*.host12.app[1].typename = "UdpSinkApp"
*.host12.app[1].io.localPort = 1001
*.host12.app[2].typename = "UdpSinkApp"
*.host12.app[2].io.localPort = 1002
*.host12.app[3].typename = "UdpSourceApp"
*.host12.app[3].io.destAddress = "host13"
*.host12.app[3].source.packetNameFormat = "%M-%m-%c"
*.host12.app[3].source.displayStringTextFormat = "sent %p pk (%l)"
*.host12.app[3].source.packetLength = 21B
*.host12.app[3].source.productionInterval = 1ms
*.host12.app[3].display-name = "type1_8"
*.host12.app[3].io.destPort = 1001
*.host12.app[4].typename = "UdpBasicApp"
*.host12.app[4].destAddresses = "host1"
*.host12.app[4].source.packetNameFormat = "%M-%m-%c"
*.host12.app[4].source.displayStringTextFormat = "sent %p pk (%l)"
*.host12.app[4].messageLength = 13B
*.host12.app[4].sendInterval = 1ms
*.host12.app[4].startTime = 1ms
*.host12.app[4].stopTime = 18ms
*.host12.app[4].display-name = "type2_4"
*.host12.app[4].destPort = 1000
*.host12.app[5].typename = "UdpBasicApp"
*.host12.app[5].destAddresses = "host1"
*.host12.app[5].source.packetNameFormat = "%M-%m-%c"
*.host12.app[5].source.displayStringTextFormat = "sent %p pk (%l)"
*.host12.app[5].messageLength = 13B
*.host12.app[5].sendInterval = 1ms
*.host12.app[5].startTime = 36ms
*.host12.app[5].stopTime = 64ms
*.host12.app[5].display-name = "type2_4"
*.host12.app[5].destPort = 1000
*.host12.app[6].typename = "UdpBasicApp"
*.host12.app[6].destAddresses = "host1"
*.host12.app[6].source.packetNameFormat = "%M-%m-%c"
*.host12.app[6].source.displayStringTextFormat = "sent %p pk (%l)"