[General]
network = TSN_multipath
sim-time-limit = 100ms
*.macForwardingTableConfigurator.typename = ""
*.*.hasStreamRedundancy = true
*.*.bridging.streamRelay.typename = "StreamRelayLayer"
*.*.bridging.streamCoder.typename = "StreamCoderLayer"
*.streamRedundancyConfigurator.typename = "StreamRedundancyConfigurator"
*.host0.eth[0].bitrate = 1000Mbps
*.switch0.eth[0].bitrate = 1000Mbps
*.switch0.eth[1].bitrate = 1700Mbps
*.switch0.eth[2].bitrate = 2200Mbps
*.switch0.eth[3].bitrate = 1500Mbps
*.switch0.eth[4].bitrate = 2200Mbps
*.switch0.eth[5].bitrate = 2200Mbps
*.switch0.eth[6].bitrate = 1800Mbps
*.switch0.eth[7].bitrate = 1800Mbps
*.switch0.eth[8].bitrate = 2400Mbps
*.switch0.eth[9].bitrate = 1500Mbps
*.switch0.eth[10].bitrate = 2100Mbps
*.switch0.eth[11].bitrate = 1200Mbps
*.switch0.eth[12].bitrate = 1900Mbps
*.host1.eth[0].bitrate = 1000Mbps
*.switch1.eth[0].bitrate = 1000Mbps
*.switch1.eth[1].bitrate = 1500Mbps
*.switch1.eth[2].bitrate = 1400Mbps
*.switch1.eth[3].bitrate = 1800Mbps
*.switch1.eth[4].bitrate = 2000Mbps
*.switch1.eth[5].bitrate = 1800Mbps
*.switch1.eth[6].bitrate = 1700Mbps
*.switch1.eth[7].bitrate = 2100Mbps
*.switch1.eth[8].bitrate = 1600Mbps
*.switch1.eth[9].bitrate = 1800Mbps
*.switch1.eth[10].bitrate = 1800Mbps
*.switch1.eth[11].bitrate = 1300Mbps
*.switch1.eth[12].bitrate = 2300Mbps
*.host2.eth[0].bitrate = 1000Mbps
*.switch2.eth[0].bitrate = 1000Mbps
*.switch2.eth[1].bitrate = 1800Mbps
*.switch2.eth[2].bitrate = 2200Mbps
*.switch2.eth[3].bitrate = 2300Mbps
*.switch2.eth[4].bitrate = 2200Mbps
*.switch2.eth[5].bitrate = 1200Mbps
*.switch2.eth[6].bitrate = 2200Mbps
*.switch2.eth[7].bitrate = 1400Mbps
*.switch2.eth[8].bitrate = 1400Mbps
*.switch2.eth[9].bitrate = 1400Mbps
*.switch2.eth[10].bitrate = 1300Mbps
*.switch2.eth[11].bitrate = 2100Mbps
*.switch2.eth[12].bitrate = 2200Mbps
*.host3.eth[0].bitrate = 1000Mbps
*.switch3.eth[0].bitrate = 1000Mbps
*.switch3.eth[1].bitrate = 2200Mbps
*.switch3.eth[2].bitrate = 2200Mbps
*.switch3.eth[3].bitrate = 1700Mbps
*.switch3.eth[4].bitrate = 1400Mbps
*.switch3.eth[5].bitrate = 1200Mbps
*.switch3.eth[6].bitrate = 1700Mbps
*.switch3.eth[7].bitrate = 2300Mbps
*.switch3.eth[8].bitrate = 2000Mbps
*.switch3.eth[9].bitrate = 1900Mbps
*.switch3.eth[10].bitrate = 2100Mbps
*.switch3.eth[11].bitrate = 1800Mbps
*.switch3.eth[12].bitrate = 2200Mbps
*.switch3.eth[13].bitrate = 1700Mbps
*.switch3.eth[14].bitrate = 1400Mbps
*.switch3.eth[15].bitrate = 1500Mbps
*.switch3.eth[16].bitrate = 1200Mbps
*.switch3.eth[17].bitrate = 2400Mbps
*.switch3.eth[18].bitrate = 1900Mbps
*.switch3.eth[19].bitrate = 1200Mbps
*.switch3.eth[20].bitrate = 1400Mbps
*.switch3.eth[21].bitrate = 2100Mbps
*.host4.eth[0].bitrate = 1000Mbps
*.switch4.eth[0].bitrate = 1000Mbps
*.switch4.eth[1].bitrate = 1200Mbps
*.switch4.eth[2].bitrate = 1400Mbps
*.switch4.eth[3].bitrate = 1500Mbps
*.switch4.eth[4].bitrate = 1800Mbps
*.switch4.eth[5].bitrate = 1600Mbps
*.switch4.eth[6].bitrate = 2100Mbps
*.switch4.eth[7].bitrate = 1200Mbps
*.switch4.eth[8].bitrate = 1600Mbps
*.switch4.eth[9].bitrate = 1300Mbps
*.switch4.eth[10].bitrate = 1700Mbps
*.switch4.eth[11].bitrate = 1200Mbps
*.switch4.eth[12].bitrate = 1200Mbps
*.switch4.eth[13].bitrate = 2300Mbps
*.switch4.eth[14].bitrate = 1300Mbps
*.switch4.eth[15].bitrate = 1500Mbps
*.switch4.eth[16].bitrate = 2200Mbps
*.host5.eth[0].bitrate = 1000Mbps
*.switch5.eth[0].bitrate = 1000Mbps
*.switch5.eth[1].bitrate = 2200Mbps
*.switch5.eth[2].bitrate = 1400Mbps
*.switch5.eth[3].bitrate = 1200Mbps
*.switch5.eth[4].bitrate = 1600Mbps
*.switch5.eth[5].bitrate = 1800Mbps
*.switch5.eth[6].bitrate = 1300Mbps
*.switch5.eth[7].bitrate = 1700Mbps
*.switch5.eth[8].bitrate = 2200Mbps
*.switch5.eth[9].bitrate = 1600Mbps
*.switch5.eth[10].bitrate = 1600Mbps
*.switch5.eth[11].bitrate = 1300Mbps
*.switch5.eth[12].bitrate = 1400Mbps
*.switch5.eth[13].bitrate = 1500Mbps
*.switch5.eth[14].bitrate = 1900Mbps
*.switch5.eth[15].bitrate = 2000Mbps
*.switch5.eth[16].bitrate = 1900Mbps
*.switch5.eth[17].bitrate = 1500Mbps
*.switch5.eth[18].bitrate = 1400Mbps
*.switch5.eth[19].bitrate = 1600Mbps
*.switch5.eth[20].bitrate = 2200Mbps
*.switch5.eth[21].bitrate = 1500Mbps
*.switch5.eth[22].bitrate = 2400Mbps
*.switch5.eth[23].bitrate = 2000Mbps
*.switch5.eth[24].bitrate = 1200Mbps
*.switch5.eth[25].bitrate = 2100Mbps
*.host6.eth[0].bitrate = 1000Mbps
*.switch6.eth[0].bitrate = 1000Mbps
*.switch6.eth[1].bitrate = 1700Mbps
*.switch6.eth[2].bitrate = 1700Mbps
*.switch6.eth[3].bitrate = 1800Mbps
*.switch6.eth[4].bitrate = 1800Mbps
*.switch6.eth[5].bitrate = 1800Mbps
*.switch6.eth[6].bitrate = 2100Mbps
*.switch6.eth[7].bitrate = 1300Mbps
*.switch6.eth[8].bitrate = 2400Mbps
*.switch6.eth[9].bitrate = 1300Mbps
*.switch6.eth[10].bitrate = 1600Mbps
*.switch6.eth[11].bitrate = 1300Mbps
*.switch6.eth[12].bitrate = 2000Mbps
*.switch6.eth[13].bitrate = 1500Mbps
*.switch6.eth[14].bitrate = 1700Mbps
*.switch6.eth[15].bitrate = 2000Mbps
*.switch6.eth[16].bitrate = 2000Mbps
*.switch6.eth[17].bitrate = 2300Mbps
*.switch6.eth[18].bitrate = 1900Mbps
*.switch6.eth[19].bitrate = 1200Mbps
*.switch6.eth[20].bitrate = 1600Mbps
*.switch6.eth[21].bitrate = 1200Mbps
*.switch6.eth[22].bitrate = 2100Mbps
*.switch6.eth[23].bitrate = 1700Mbps
*.switch6.eth[24].bitrate = 2000Mbps
*.switch6.eth[25].bitrate = 2000Mbps
*.switch6.eth[26].bitrate = 1900Mbps
*.host7.eth[0].bitrate = 1000Mbps
*.switch7.eth[0].bitrate = 1000Mbps
*.switch7.eth[1].bitrate = 1400Mbps
*.switch7.eth[2].bitrate = 2300Mbps
*.switch7.eth[3].bitrate = 1600Mbps
*.switch7.eth[4].bitrate = 1300Mbps
*.switch7.eth[5].bitrate = 1300Mbps
*.switch7.eth[6].bitrate = 2300Mbps
*.switch7.eth[7].bitrate = 1300Mbps
*.switch7.eth[8].bitrate = 1600Mbps
*.switch7.eth[9].bitrate = 1300Mbps
*.switch7.eth[10].bitrate = 1400Mbps
*.switch7.eth[11].bitrate = 2300Mbps
*.switch7.eth[12].bitrate = 1800Mbps
*.host8.eth[0].bitrate = 1000Mbps
*.switch8.eth[0].bitrate = 1000Mbps
*.switch8.eth[1].bitrate = 2000Mbps
*.switch8.eth[2].bitrate = 1700Mbps
*.switch8.eth[3].bitrate = 2000Mbps
*.switch8.eth[4].bitrate = 2300Mbps
*.switch8.eth[5].bitrate = 1600Mbps
*.switch8.eth[6].bitrate = 1900Mbps
*.switch8.eth[7].bitrate = 1400Mbps
*.switch8.eth[8].bitrate = 1300Mbps
*.switch8.eth[9].bitrate = 2000Mbps
*.switch8.eth[10].bitrate = 1300Mbps
*.host9.eth[0].bitrate = 1000Mbps
*.switch9.eth[0].bitrate = 1000Mbps
*.switch9.eth[1].bitrate = 1900Mbps
*.switch9.eth[2].bitrate = 2200Mbps
*.switch9.eth[3].bitrate = 1600Mbps
*.switch9.eth[4].bitrate = 1700Mbps
*.switch9.eth[5].bitrate = 2200Mbps
*.switch9.eth[6].bitrate = 1200Mbps
*.switch9.eth[7].bitrate = 1300Mbps
*.switch9.eth[8].bitrate = 1900Mbps
*.switch9.eth[9].bitrate = 2300Mbps
*.switch9.eth[10].bitrate = 1200Mbps
*.switch9.eth[11].bitrate = 1600Mbps
*.switch9.eth[12].bitrate = 1500Mbps
*.switch9.eth[13].bitrate = 1400Mbps
*.switch9.eth[14].bitrate = 2300Mbps
*.switch9.eth[15].bitrate = 2100Mbps
*.switch9.eth[16].bitrate = 1600Mbps
*.switch9.eth[17].bitrate = 1500Mbps
*.switch9.eth[18].bitrate = 2000Mbps
*.switch9.eth[19].bitrate = 1500Mbps
*.switch9.eth[20].bitrate = 2000Mbps
*.host10.eth[0].bitrate = 1000Mbps
*.switch10.eth[0].bitrate = 1000Mbps
*.switch10.eth[1].bitrate = 2300Mbps
*.switch10.eth[2].bitrate = 1600Mbps
*.switch10.eth[3].bitrate = 1500Mbps
*.switch10.eth[4].bitrate = 1800Mbps
*.switch10.eth[5].bitrate = 1200Mbps
*.switch10.eth[6].bitrate = 1500Mbps
*.switch10.eth[7].bitrate = 1400Mbps
*.switch10.eth[8].bitrate = 1600Mbps
*.switch10.eth[9].bitrate = 1300Mbps
*.switch10.eth[10].bitrate = 2300Mbps
*.switch10.eth[11].bitrate = 2200Mbps
*.switch10.eth[12].bitrate = 1700Mbps
*.switch10.eth[13].bitrate = 2100Mbps
*.switch10.eth[14].bitrate = 1700Mbps
*.switch10.eth[15].bitrate = 1400Mbps
*.host11.eth[0].bitrate = 1000Mbps
*.switch11.eth[0].bitrate = 1000Mbps
*.switch11.eth[1].bitrate = 2100Mbps
*.switch11.eth[2].bitrate = 2100Mbps
*.switch11.eth[3].bitrate = 1600Mbps
*.switch11.eth[4].bitrate = 1700Mbps
*.switch11.eth[5].bitrate = 2300Mbps
*.switch11.eth[6].bitrate = 1300Mbps
*.switch11.eth[7].bitrate = 2100Mbps
*.switch11.eth[8].bitrate = 1500Mbps
*.switch11.eth[9].bitrate = 1400Mbps
*.switch11.eth[10].bitrate = 1200Mbps
*.switch11.eth[11].bitrate = 2000Mbps
*.switch11.eth[12].bitrate = 1500Mbps
*.host12.eth[0].bitrate = 1000Mbps
*.switch12.eth[0].bitrate = 1000Mbps
*.switch12.eth[1].bitrate = 2200Mbps
*.switch12.eth[2].bitrate = 1200Mbps
*.switch12.eth[3].bitrate = 1300Mbps
*.switch12.eth[4].bitrate = 2000Mbps
*.switch12.eth[5].bitrate = 1200Mbps
*.switch12.eth[6].bitrate = 2100Mbps
*.switch12.eth[7].bitrate = 2400Mbps
*.switch12.eth[8].bitrate = 1200Mbps
*.switch12.eth[9].bitrate = 2100Mbps
*.switch12.eth[10].bitrate = 1600Mbps
*.switch12.eth[11].bitrate = 1300Mbps
*.switch12.eth[12].bitrate = 1500Mbps
*.switch12.eth[13].bitrate = 2200Mbps
*.switch12.eth[14].bitrate = 1400Mbps
*.switch12.eth[15].bitrate = 1600Mbps
*.switch12.eth[16].bitrate = 2300Mbps
*.switch12.eth[17].bitrate = 1800Mbps
*.switch12.eth[18].bitrate = 1700Mbps
*.switch12.eth[19].bitrate = 2300Mbps
*.switch12.eth[20].bitrate = 2100Mbps
*.switch12.eth[21].bitrate = 1600Mbps
*.switch12.eth[22].bitrate = 1900Mbps
*.host13.eth[0].bitrate = 1000Mbps
*.switch13.eth[0].bitrate = 1000Mbps
*.switch13.eth[1].bitrate = 1200Mbps
*.switch13.eth[2].bitrate = 1800Mbps
*.switch13.eth[3].bitrate = 1400Mbps
*.switch13.eth[4].bitrate = 2000Mbps
*.switch13.eth[5].bitrate = 1500Mbps
*.switch13.eth[6].bitrate = 1800Mbps
*.switch13.eth[7].bitrate = 2100Mbps
*.switch13.eth[8].bitrate = 1900Mbps
*.switch13.eth[9].bitrate = 2300Mbps
*.switch13.eth[10].bitrate = 2400Mbps
*.switch13.eth[11].bitrate = 1700Mbps
*.switch13.eth[12].bitrate = 1300Mbps
*.switch13.eth[13].bitrate = 2000Mbps
*.switch13.eth[14].bitrate = 2000Mbps
*.switch13.eth[15].bitrate = 1700Mbps
*.switch13.eth[16].bitrate = 2100Mbps
*.switch13.eth[17].bitrate = 1300Mbps
*.switch13.eth[18].bitrate = 1700Mbps
*.switch13.eth[19].bitrate = 1500Mbps
*.switch13.eth[20].bitrate = 1700Mbps
*.switch13.eth[21].bitrate = 1900Mbps
*.switch13.eth[22].bitrate = 1200Mbps
*.host14.eth[0].bitrate = 1000Mbps
*.switch14.eth[0].bitrate = 1000Mbps
*.switch14.eth[1].bitrate = 1800Mbps
*.switch14.eth[2].bitrate = 2200Mbps
*.switch14.eth[3].bitrate = 1500Mbps
*.switch14.eth[4].bitrate = 2300Mbps
*.switch14.eth[5].bitrate = 1600Mbps
*.switch14.eth[6].bitrate = 1600Mbps
*.switch14.eth[7].bitrate = 1300Mbps
*.switch14.eth[8].bitrate = 1200Mbps
*.switch14.eth[9].bitrate = 1400Mbps
*.switch14.eth[10].bitrate = 1200Mbps
*.switch14.eth[11].bitrate = 1800Mbps
*.switch14.eth[12].bitrate = 1600Mbps
*.switch14.eth[13].bitrate = 1500Mbps
*.host15.eth[0].bitrate = 1000Mbps
*.switch15.eth[0].bitrate = 1000Mbps
*.switch15.eth[1].bitrate = 2200Mbps
*.switch15.eth[2].bitrate = 1900Mbps
*.switch15.eth[3].bitrate = 1900Mbps
*.switch15.eth[4].bitrate = 1600Mbps
*.switch15.eth[5].bitrate = 1500Mbps
*.switch15.eth[6].bitrate = 2300Mbps
*.switch15.eth[7].bitrate = 2300Mbps
*.switch15.eth[8].bitrate = 1700Mbps
*.switch15.eth[9].bitrate = 2100Mbps
*.switch15.eth[10].bitrate = 1800Mbps
*.switch15.eth[11].bitrate = 1400Mbps
*.switch15.eth[12].bitrate = 2000Mbps
*.switch15.eth[13].bitrate = 2000Mbps
*.switch15.eth[14].bitrate = 2100Mbps
*.switch15.eth[15].bitrate = 1200Mbps
*.switch15.eth[16].bitrate = 1600Mbps
*.switch15.eth[17].bitrate = 1800Mbps
*.switch15.eth[18].bitrate = 1600Mbps
*.switch15.eth[19].bitrate = 2100Mbps
*.switch15.eth[20].bitrate = 1500Mbps
*.switch15.eth[21].bitrate = 2200Mbps
*.host16.eth[0].bitrate = 1000Mbps
*.switch16.eth[0].bitrate = 1000Mbps
*.switch16.eth[1].bitrate = 2000Mbps
*.switch16.eth[2].bitrate = 1400Mbps
*.switch16.eth[3].bitrate = 1800Mbps
*.switch16.eth[4].bitrate = 1500Mbps
*.switch16.eth[5].bitrate = 1200Mbps
*.switch16.eth[6].bitrate = 1300Mbps
*.switch16.eth[7].bitrate = 2200Mbps
*.switch16.eth[8].bitrate = 2100Mbps
*.switch16.eth[9].bitrate = 1300Mbps
*.switch16.eth[10].bitrate = 2000Mbps
*.switch16.eth[11].bitrate = 2300Mbps
*.switch16.eth[12].bitrate = 1500Mbps
*.switch16.eth[13].bitrate = 2000Mbps
*.switch16.eth[14].bitrate = 1900Mbps
*.switch16.eth[15].bitrate = 1600Mbps
*.switch16.eth[16].bitrate = 1500Mbps
*.switch16.eth[17].bitrate = 2100Mbps
*.switch16.eth[18].bitrate = 1400Mbps
*.host17.eth[0].bitrate = 1000Mbps
*.switch17.eth[0].bitrate = 1000Mbps
*.switch17.eth[1].bitrate = 1900Mbps
*.switch17.eth[2].bitrate = 1200Mbps
*.switch17.eth[3].bitrate = 1500Mbps
*.switch17.eth[4].bitrate = 1700Mbps
*.switch17.eth[5].bitrate = 1200Mbps
*.switch17.eth[6].bitrate = 1600Mbps
*.switch17.eth[7].bitrate = 2300Mbps
*.switch17.eth[8].bitrate = 1500Mbps
*.switch17.eth[9].bitrate = 1700Mbps
*.switch17.eth[10].bitrate = 2100Mbps
*.host18.eth[0].bitrate = 1000Mbps
*.switch18.eth[0].bitrate = 1000Mbps
*.switch18.eth[1].bitrate = 2000Mbps
*.switch18.eth[2].bitrate = 1700Mbps
*.switch18.eth[3].bitrate = 1500Mbps
*.switch18.eth[4].bitrate = 1600Mbps
*.switch18.eth[5].bitrate = 2300Mbps
*.switch18.eth[6].bitrate = 2300Mbps
*.switch18.eth[7].bitrate = 1700Mbps
*.switch18.eth[8].bitrate = 2100Mbps
*.switch18.eth[9].bitrate = 2100Mbps
*.switch18.eth[10].bitrate = 1900Mbps
*.switch18.eth[11].bitrate = 2200Mbps
*.switch18.eth[12].bitrate = 1200Mbps
*.switch18.eth[13].bitrate = 1900Mbps
*.switch18.eth[14].bitrate = 1800Mbps
*.switch18.eth[15].bitrate = 1300Mbps
*.switch18.eth[16].bitrate = 2000Mbps
*.switch18.eth[17].bitrate = 1400Mbps
*.switch18.eth[18].bitrate = 1500Mbps
*.switch18.eth[19].bitrate = 1200Mbps
*.switch18.eth[20].bitrate = 1500Mbps
*.switch18.eth[21].bitrate = 2200Mbps
*.switch18.eth[22].bitrate = 2100Mbps
*.switch18.eth[23].bitrate = 2300Mbps
*.host19.eth[0].bitrate = 1000Mbps
*.switch19.eth[0].bitrate = 1000Mbps
*.switch19.eth[1].bitrate = 2200Mbps
*.switch19.eth[2].bitrate = 1400Mbps
*.switch19.eth[3].bitrate = 1400Mbps
*.switch19.eth[4].bitrate = 2100Mbps
*.switch19.eth[5].bitrate = 1900Mbps
*.switch19.eth[6].bitrate = 1400Mbps
*.switch19.eth[7].bitrate = 2300Mbps
*.switch19.eth[8].bitrate = 2100Mbps
*.host0.numApps = 5
*.host0.app[0].typename = "UdpSinkApp"
*.host0.app[0].io.localPort = 1000
*.host0.app[1].typename = "UdpSinkApp"
*.host0.app[1].io.localPort = 1001
*.host0.app[2].typename = "UdpSourceApp"
*.host0.app[2].io.destAddress = "host5"
*.host0.app[2].source.packetNameFormat = "%M-%m-%c"
*.host0.app[2].source.displayStringTextFormat = "sent %p pk (%l)"
*.host0.app[2].source.packetLength = 21B
*.host0.app[2].source.productionInterval = 1ms
*.host0.app[2].display-name = "type1_8"
*.host0.app[2].io.destPort = 1000
*.host0.app[3].typename = "UdpSinkApp"
*.host0.app[3].io.localPort = 1002
*.host0.app[4].typename = "UdpSinkApp"
*.host0.app[4].io.localPort = 1003
*.host1.numApps = 15
*.host1.app[0].typename = "UdpSinkApp"
*.host1.app[0].io.localPort = 1000
*.host1.app[1].typename = "UdpBasicApp"
*.host1.app[1].destAddresses = "host17"
*.host1.app[1].source.packetNameFormat = "%M-%m-%c"
*.host1.app[1].source.displayStringTextFormat = "sent %p pk (%l)"
*.host1.app[1].messageLength = 19B
*.host1.app[1].sendInterval = 1ms
*.host1.app[1].startTime = 1ms
*.host1.app[1].stopTime = 15ms
*.host1.app[1].display-name = "type2_2"
*.host1.app[1].destPort = 1000
*.host1.app[2].typename = "UdpBasicApp"
*.host1.app[2].destAddresses = "host17"
*.host1.app[2].source.packetNameFormat = "%M-%m-%c"
*.host1.app[2].source.displayStringTextFormat = "sent %p pk (%l)"
*.host1.app[2].messageLength = 19B
*.host1.app[2].sendInterval = 1ms
*.host1.app[2].startTime = 23ms
*.host1.app[2].stopTime = 26ms
*.host1.app[2].display-name = "type2_2"
*.host1.app[2].destPort = 1000
*.host1.app[3].typename = "UdpBasicApp"
*.host1.app[3].destAddresses = "host17"
*.host1.app[3].source.packetNameFormat = "%M-%m-%c"
*.host1.app[3].source.displayStringTextFormat = "sent %p pk (%l)"
*.host1.app[3].messageLength = 19B
*.host1.app[3].sendInterval = 1ms
*.host1.app[3].startTime = 28ms
*.host1.app[3].stopTime = 35ms
*.host1.app[3].display-name = "type2_2"
*.host1.app[3].destPort = 1000
*.host1.app[4].typename = "UdpBasicApp"
*.host1.app[4].destAddresses = "host17"
*.host1.app[4].source.packetNameFormat = "%M-%m-%c"
*.host1.app[4].source.displayStringTextFormat = "sent %p pk (%l)"
*.host1.app[4].messageLength = 19B
*.host1.app[4].sendInterval = 1ms
*.host1.app[4].startTime = 36ms
*.host1.app[4].stopTime = 39ms
*.host1.app[4].display-name = "type2_2"
*.host1.app[4].destPort = 1000
*.host1.app[5].typename = "UdpBasicApp"
*.host1.app[5].destAddresses = "host17"
*.host1.app[5].source.packetNameFormat = "%M-%m-%c"
*.host1.app[5].source.displayStringTextFormat = "sent %p pk (%l)"
*.host1.app[5].messageLength = 19B
*.host1.app[5].sendInterval = 1ms
*.host1.app[5].startTime = 44ms
*.host1.app[5].stopTime = 47ms
*.host1.app[5].display-name = "type2_2"
*.host1.app[5].destPort = 1000
*.host1.app[6].typename = "UdpBasicApp"
*.host1.app[6].destAddresses = "host17"
*.host1.app[6].source.packetNameFormat = "%M-%m-%c"
*.host1.app[6].source.displayStringTextFormat = "sent %p pk (%l)"
*.host1.app[6].messageLength = 19B
*.host1.app[6].sendInterval = 1ms
*.host1.app[6].startTime = 62ms
*.host1.app[6].stopTime = 65ms
*.host1.app[6].display-name = "type2_2"
*.host1.app[6].destPort = 1000
*.host1.app[7].typename = "UdpBasicApp"
*.host1.app[7].destAddresses = "host17"
*.host1.app[7].source.packetNameFormat = "%M-%m-%c"
*.host1.app[7].source.displayStringTextFormat = "sent %p pk (%l)"
*.host1.app[7].messageLength = 19B
*.host1.app[7].sendInterval = 1ms
*.host1.app[7].startTime = 70ms
*.host1.app[7].stopTime = 72ms
*.host1.app[7].display-name = "type2_2"
*.host1.app[7].destPort = 1000
*.host1.app[8].typename = "UdpBasicApp"
*.host1.app[8].destAddresses = "host17"
*.host1.app[8].source.packetNameFormat = "%M-%m-%c"
*.host1.app[8].source.displayStringTextFormat = "sent %p pk (%l)"
*.host1.app[8].messageLength = 19B
*.host1.app[8].sendInterval = 1ms
*.host1.app[8].startTime = 75ms
*.host1.app[8].stopTime = 76ms
*.host1.app[8].display-name = "type2_2"
*.host1.app[8].destPort = 1000
*.host1.app[9].typename = "UdpBasicApp"
*.host1.app[9].destAddresses = "host17"
*.host1.app[9].source.packetNameFormat = "%M-%m-%c"
*.host1.app[9].source.displayStringTextFormat = "sent %p pk (%l)"
*.host1.app[9].messageLength = 19B
*.host1.app[9].sendInterval = 1ms
*.host1.app[9].startTime = 82ms
*.host1.app[9].stopTime = 95ms
*.host1.app[9].display-name = "type2_2"
*.host1.app[9].destPort = 1000
*.host1.app[10].typename = "UdpBasicApp"
*.host1.app[10].destAddresses = "host16"
*.host1.app[10].source.packetNameFormat = "%M-%m-%c"
*.host1.app[10].source.displayStringTextFormat = "sent %p pk (%l)"
*.host1.app[10].messageLength = 14B
*.host1.app[10].sendInterval = 1ms
*.host1.app[10].startTime = 3ms
*.host1.app[10].stopTime = 4ms
*.host1.app[10].display-name = "type2_5"
*.host1.app[10].destPort = 1000
*.host1.app[11].typename = "UdpBasicApp"
*.host1.app[11].destAddresses = "host16"
*.host1.app[11].source.packetNameFormat = "%M-%m-%c"
*.host1.app[11].source.displayStringTextFormat = "sent %p pk (%l)"
*.host1.app[11].messageLength = 14B
*.host1.app[11].sendInterval = 1ms
*.host1.app[11].startTime = 28ms
*.host1.app[11].stopTime = 36ms
*.host1.app[11].display-name = "type2_5"
*.host1.app[11].destPort = 1000
*.host1.app[12].typename = "UdpBasicApp"
*.host1.app[12].destAddresses = "host16"
*.host1.app[12].source.packetNameFormat = "%M-%m-%c"
*.host1.app[12].source.displayStringTextFormat = "sent %p pk (%l)"
*.host1.app[12].messageLength = 14B
*.host1.app[12].sendInterval = 1ms
*.host1.app[12].startTime = 44ms
*.host1.app[12].stopTime = 46ms
*.host1.app[12].display-name = "type2_5"
*.host1.app[12].destPort = 1000
*.host1.app[13].typename = "UdpBasicApp"
*.host1.app[13].destAddresses = "host16"
*.host1.app[13].source.packetNameFormat = "%M-%m-%c"
*.host1.app[13].source.displayStringTextFormat = "sent %p pk (%l)"
*.host1.app[13].messageLength = 14B
*.host1.app[13].sendInterval = 1ms
*.host1.app[13].startTime = 47ms
*.host1.app[13].stopTime = 54ms
*.host1.app[13].display-name = "type2_5"
*.host1.app[13].destPort = 1000
*.host1.app[14].typename = "UdpBasicApp"
*.host1.app[14].destAddresses = "host16"
*.host1.app[14].source.packetNameFormat = "%M-%m-%c"
*.host1.app[14].source.displayStringTextFormat = "sent %p pk (%l)"
*.host1.app[14].messageLength = 14B
*.host1.app[14].sendInterval = 1ms
*.host1.app[14].startTime = 70ms
*.host1.app[14].stopTime = 100ms
*.host1.app[14].display-name = "type2_5"
*.host1.app[14].destPort = 1000
*.host2.numApps = 2
*.host2.app[0].typename = "UdpSinkApp"
*.host2.app[0].io.localPort = 1000
*.host2.app[1].typename = "UdpSourceApp"
*.host2.app[1].io.destAddress = "host11"
*.host2.app[1].source.packetNameFormat = "%M-%m-%c"
*.host2.app[1].source.displayStringTextFormat = "sent %p pk (%l)"
*.host2.app[1].source.packetLength = 18B
*.host2.app[1].source.productionInterval = 1ms
*.host2.app[1].display-name = "type1_9"
*.host2.app[1].io.destPort = 1001
*.host3.numApps = 0
*.host4.numApps = 1
*.host4.app[0].typename = "UdpSinkApp"
*.host4.app[0].io.localPort = 1000
*.host5.numApps = 7
*.host5.app[0].typename = "UdpSinkApp"
*.host5.app[0].io.localPort = 1000
*.host5.app[1].typename = "UdpBasicApp"
*.host5.app[1].destAddresses = "host13"
*.host5.app[1].source.packetNameFormat = "%M-%m-%c"
*.host5.app[1].source.displayStringTextFormat = "sent %p pk (%l)"
*.host5.app[1].messageLength = 16B
*.host5.app[1].sendInterval = 1ms
*.host5.app[1].startTime = 3ms
*.host5.app[1].stopTime = 10ms
*.host5.app[1].display-name = "type2_4"
*.host5.app[1].destPort = 1000
*.host5.app[2].typename = "UdpBasicApp"
*.host5.app[2].destAddresses = "host13"
*.host5.app[2].source.packetNameFormat = "%M-%m-%c"
*.host5.app[2].source.displayStringTextFormat = "sent %p pk (%l)"
*.host5.app[2].messageLength = 16B
*.host5.app[2].sendInterval = 1ms
*.host5.app[2].startTime = 20ms
*.host5.app[2].stopTime = 29ms
*.host5.app[2].display-name = "type2_4"
*.host5.app[2].destPort = 1000
*.host5.app[3].typename = "UdpBasicApp"
*.host5.app[3].destAddresses = "host13"
*.host5.app[3].source.packetNameFormat = "%M-%m-%c"
*.host5.app[3].source.displayStringTextFormat = "sent %p pk (%l)"
*.host5.app[3].messageLength = 16B
*.host5.app[3].sendInterval = 1ms
*.host5.app[3].startTime = 46ms
*.host5.app[3].stopTime = 48ms
*.host5.app[3].display-name = "type2_4"
*.host5.app[3].destPort = 1000
*.host5.app[4].typename = "UdpBasicApp"
*.host5.app[4].destAddresses = "host13"
*.host5.app[4].source.packetNameFormat = "%M-%m-%c"
*.host5.app[4].source.displayStringTextFormat = "sent %p pk (%l)"
*.host5.app[4].messageLength = 16B
*.host5.app[4].sendInterval = 1ms
*.host5.app[4].startTime = 69ms
*.host5.app[4].stopTime = 70ms
*.host5.app[4].display-name = "type2_4"
*.host5.app[4].destPort = 1000
*.host5.app[5].typename = "UdpBasicApp"
*.host5.app[5].destAddresses = "host13"
*.host5.app[5].source.packetNameFormat = "%M-%m-%c"
*.host5.app[5].source.displayStringTextFormat = "sent %p pk (%l)"
*.host5.app[5].messageLength = 16B
*.host5.app[5].sendInterval = 1ms
*.host5.app[5].startTime = 81ms
*.host5.app[5].stopTime = 86ms
*.host5.app[5].display-name = "type2_4"
*.host5.app[5].destPort = 1000
*.host5.app[6].typename = "UdpBasicApp"
*.host5.app[6].destAddresses = "host13"
*.host5.app[6].source.packetNameFormat = "%M-%m-%c"
*.host5.app[6].source.displayStringTextFormat = "sent %p pk (%l)"
*.host5.app[6].messageLength = 16B
*.host5.app[6].sendInterval = 1ms
*.host5.app[6].startTime = 98ms
*.host5.app[6].stopTime = 100ms
*.host5.app[6].display-name = "type2_4"
*.host5.app[6].destPort = 1000
*.host6.numApps = 8
*.host6.app[0].typename = "UdpSourceApp"
*.host6.app[0].io.destAddress = "host14"
*.host6.app[0].source.packetNameFormat = "%M-%m-%c"
*.host6.app[0].source.displayStringTextFormat = "sent %p pk (%l)"
*.host6.app[0].source.packetLength = 14B
*.host6.app[0].source.productionInterval = 1ms
*.host6.app[0].display-name = "type1_4"
*.host6.app[0].io.destPort = 1001
*.host6.app[1].typename = "UdpSourceApp"
*.host6.app[1].io.destAddress = "host2"
*.host6.app[1].source.packetNameFormat = "%M-%m-%c"
*.host6.app[1].source.displayStringTextFormat = "sent %p pk (%l)"
*.host6.app[1].source.packetLength = 14B
*.host6.app[1].source.productionInterval = 1ms
*.host6.app[1].display-name = "type1_6"
*.host6.app[1].io.destPort = 1000
*.host6.app[2].typename = "UdpSinkApp"
*.host6.app[2].io.localPort = 1000
*.host6.app[3].typename = "UdpBasicApp"
*.host6.app[3].destAddresses = "host0"
*.host6.app[3].source.packetNameFormat = "%M-%m-%c"
*.host6.app[3].source.displayStringTextFormat = "sent %p pk (%l)"
*.host6.app[3].messageLength = 17B
*.host6.app[3].sendInterval = 1ms
*.host6.app[3].startTime = 19ms
*.host6.app[3].stopTime = 27ms
*.host6.app[3].display-name = "type2_0"
*.host6.app[3].destPort = 1002
*.host6.app[4].typename = "UdpBasicApp"
*.host6.app[4].destAddresses = "host0"
*.host6.app[4].source.packetNameFormat = "%M-%m-%c"
*.host6.app[4].source.displayStringTextFormat = "sent %p pk (%l)"
*.host6.app[4].messageLength = 17B
*.host6.app[4].sendInterval = 1ms
*.host6.app[4].startTime = 32ms
*.host6.app[4].stopTime = 33ms
*.host6.app[4].display-name = "type2_0"
*.host6.app[4].destPort = 1002
*.host6.app[5].typename = "UdpBasicApp"
*.host6.app[5].destAddresses = "host0"
*.host6.app[5].source.packetNameFormat = "%M-%m-%c"
*.host6.app[5].source.displayStringTextFormat = "sent %p pk (%l)"
*.host6.app[5].messageLength = 17B
*.host6.app[5].sendInterval = 1ms
*.host6.app[5].startTime = 38ms
*.host6.app[5].stopTime = 45ms
*.host6.app[5].display-name = "type2_0"
*.host6.app[5].destPort = 1002
*.host6.app[6].typename = "UdpBasicApp"
*.host6.app[6].destAddresses = "host0"
*.host6.app[6].source.packetNameFormat = "%M-%m-%c"
*.host6.app[6].source.displayStringTextFormat = "sent %p pk (%l)"
*.host6.app[6].messageLength = 17B
*.host6.app[6].sendInterval = 1ms
*.host6.app[6].startTime = 50ms
*.host6.app[6].stopTime = 52ms
*.host6.app[6].display-name = "type2_0"
*.host6.app[6].destPort = 1002
*.host6.app[7].typename = "UdpBasicApp"
*.host6.app[7].destAddresses = "host0"
*.host6.app[7].source.packetNameFormat = "%M-%m-%c"
*.host6.app[7].source.displayStringTextFormat = "sent %p pk (%l)"
*.host6.app[7].messageLength = 17B
*.host6.app[7].sendInterval = 1ms
*.host6.app[7].startTime = 84ms
*.host6.app[7].stopTime = 99ms
*.host6.app[7].display-name = "type2_0"
*.host6.app[7].destPort = 1002
*.host7.numApps = 2
*.host7.app[0].typename = "UdpSourceApp"
*.host7.app[0].io.destAddress = "host0"
*.host7.app[0].source.packetNameFormat = "%M-%m-%c"
*.host7.app[0].source.displayStringTextFormat = "sent %p pk (%l)"
*.host7.app[0].source.packetLength = 17B
*.host7.app[0].source.productionInterval = 1ms
*.host7.app[0].display-name = "type1_3"
*.host7.app[0].io.destPort = 1000
*.host7.app[1].typename = "UdpSourceApp"
*.host7.app[1].io.destAddress = "host6"
*.host7.app[1].source.packetNameFormat = "%M-%m-%c"
*.host7.app[1].source.displayStringTextFormat = "sent %p pk (%l)"
*.host7.app[1].source.packetLength = 13B
*.host7.app[1].source.productionInterval = 1ms
*.host7.app[1].display-name = "type1_7"
*.host7.app[1].io.destPort = 1000
*.host8.numApps = 6
*.host8.app[0].typename = "UdpSinkApp"
*.host8.app[0].io.localPort = 1000
*.host8.app[1].typename = "UdpBasicApp"
*.host8.app[1].destAddresses = "host1"
*.host8.app[1].source.packetNameFormat = "%M-%m-%c"
*.host8.app[1].source.displayStringTextFormat = "sent %p pk (%l)"
*.host8.app[1].messageLength = 21B
*.host8.app[1].sendInterval = 1ms
*.host8.app[1].startTime = 7ms
*.host8.app[1].stopTime = 12ms
*.host8.app[1].display-name = "type2_1"
*.host8.app[1].destPort = 1000
*.host8.app[2].typename = "UdpBasicApp"
*.host8.app[2].destAddresses = "host1"
*.host8.app[2].source.packetNameFormat = "%M-%m-%c"
*.host8.app[2].source.displayStringTextFormat = "sent %p pk (%l)"
*.host8.app[2].messageLength = 21B
*.host8.app[2].sendInterval = 1ms
*.host8.app[2].startTime = 16ms
*.host8.app[2].stopTime = 19ms
*.host8.app[2].display-name = "type2_1"
*.host8.app[2].destPort = 1000
*.host8.app[3].typename = "UdpBasicApp"
*.host8.app[3].destAddresses = "host1"
*.host8.app[3].source.packetNameFormat = "%M-%m-%c"
*.host8.app[3].source.displayStringTextFormat = "sent %p pk (%l)"
*.host8.app[3].messageLength = 21B
*.host8.app[3].sendInterval = 1ms
*.host8.app[3].startTime = 23ms
*.host8.app[3].stopTime = 46ms
*.host8.app[3].display-name = "type2_1"
*.host8.app[3].destPort = 1000
*.host8.app[4].typename = "UdpBasicApp"
*.host8.app[4].destAddresses = "host1"
*.host8.app[4].source.packetNameFormat = "%M-%m-%c"
*.host8.app[4].source.displayStringTextFormat = "sent %p pk (%l)"
*.host8.app[4].messageLength = 21B
*.host8.app[4].sendInterval = 1ms
*.host8.app[4].startTime = 56ms
*.host8.app[4].stopTime = 80ms
*.host8.app[4].display-name = "type2_1"
*.host8.app[4].destPort = 1000
*.host8.app[5].typename = "UdpBasicApp"
*.host8.app[5].destAddresses = "host1"
*.host8.app[5].source.packetNameFormat = "%M-%m-%c"
*.host8.app[5].source.displayStringTextFormat = "sent %p pk (%l)"
*.host8.app[5].messageLength = 21B
*.host8.app[5].sendInterval = 1ms
*.host8.app[5].startTime = 84ms
*.host8.app[5].stopTime = 88ms
*.host8.app[5].display-name = "type2_1"
*.host8.app[5].destPort = 1000
*.host9.numApps = 1
*.host9.app[0].typename = "UdpSourceApp"
*.host9.app[0].io.destAddress = "host8"
*.host9.app[0].source.packetNameFormat = "%M-%m-%c"
*.host9.app[0].source.displayStringTextFormat = "sent %p pk (%l)"
*.host9.app[0].source.packetLength = 24B
*.host9.app[0].source.productionInterval = 1ms
*.host9.app[0].display-name = "type1_0"
*.host9.app[0].io.destPort = 1000
*.host10.numApps = 10
*.host10.app[0].typename = "UdpSourceApp"
*.host10.app[0].io.destAddress = "host0"
*.host10.app[0].source.packetNameFormat = "%M-%m-%c"
*.host10.app[0].source.displayStringTextFormat = "sent %p pk (%l)"
*.host10.app[0].source.packetLength = 14B
*.host10.app[0].source.productionInterval = 1ms
*.host10.app[0].display-name = "type1_5"
*.host10.app[0].io.destPort = 1001
*.host10.app[1].typename = "UdpBasicApp"
*.host10.app[1].destAddresses = "host4"
*.host10.app[1].source.packetNameFormat = "%M-%m-%c"