[General]
network = TSN_multipath
sim-time-limit = 100ms
*.macForwardingTableConfigurator.typename = ""
*.*.hasStreamRedundancy = true
*.*.bridging.streamRelay.typename = "StreamRelayLayer"
*.*.bridging.streamCoder.typename = "StreamCoderLayer"
*.streamRedundancyConfigurator.typename = "StreamRedundancyConfigurator"
*.host0.eth[0].bitrate = 1000Mbps
*.switch0.eth[0].bitrate = 1000Mbps
*.switch0.eth[1].bitrate = 1600Mbps
*.switch0.eth[2].bitrate = 1500Mbps
*.switch0.eth[3].bitrate = 2100Mbps
*.switch0.eth[4].bitrate = 2300Mbps
*.switch0.eth[5].bitrate = 2300Mbps
*.switch0.eth[6].bitrate = 1900Mbps
*.switch0.eth[7].bitrate = 2000Mbps
*.switch0.eth[8].bitrate = 1400Mbps
*.switch0.eth[9].bitrate = 2100Mbps
*.switch0.eth[10].bitrate = 1200Mbps
*.switch0.eth[11].bitrate = 1900Mbps
*.switch0.eth[12].bitrate = 1700Mbps
*.switch0.eth[13].bitrate = 1300Mbps
*.switch0.eth[14].bitrate = 2300Mbps
*.switch0.eth[15].bitrate = 1400Mbps
*.switch0.eth[16].bitrate = 2100Mbps
*.switch0.eth[17].bitrate = 1400Mbps
*.switch0.eth[18].bitrate = 2400Mbps
*.switch0.eth[19].bitrate = 2000Mbps
*.switch0.eth[20].bitrate = 2400Mbps
*.switch0.eth[21].bitrate = 2300Mbps
*.switch0.eth[22].bitrate = 1500Mbps
*.switch0.eth[23].bitrate = 1800Mbps
*.switch0.eth[24].bitrate = 1900Mbps
*.switch0.eth[25].bitrate = 2100Mbps
*.host1.eth[0].bitrate = 1000Mbps
*.switch1.eth[0].bitrate = 1000Mbps
*.switch1.eth[1].bitrate = 1600Mbps
*.switch1.eth[2].bitrate = 2100Mbps
*.switch1.eth[3].bitrate = 1400Mbps
*.switch1.eth[4].bitrate = 2000Mbps
*.switch1.eth[5].bitrate = 1400Mbps
*.switch1.eth[6].bitrate = 1800Mbps
*.switch1.eth[7].bitrate = 2000Mbps
*.switch1.eth[8].bitrate = 2000Mbps
*.switch1.eth[9].bitrate = 2000Mbps
*.switch1.eth[10].bitrate = 2300Mbps
*.switch1.eth[11].bitrate = 2400Mbps
*.switch1.eth[12].bitrate = 2400Mbps
*.switch1.eth[13].bitrate = 2200Mbps
*.switch1.eth[14].bitrate = 1400Mbps
*.switch1.eth[15].bitrate = 2400Mbps
*.switch1.eth[16].bitrate = 2000Mbps
*.switch1.eth[17].bitrate = 1700Mbps
*.switch1.eth[18].bitrate = 1500Mbps
*.switch1.eth[19].bitrate = 2400Mbps
*.switch1.eth[20].bitrate = 2100Mbps
*.switch1.eth[21].bitrate = 1500Mbps
*.switch1.eth[22].bitrate = 2100Mbps
*.host2.eth[0].bitrate = 1000Mbps
*.switch2.eth[0].bitrate = 1000Mbps
*.switch2.eth[1].bitrate = 1400Mbps
*.switch2.eth[2].bitrate = 2200Mbps
*.switch2.eth[3].bitrate = 2400Mbps
*.switch2.eth[4].bitrate = 1600Mbps
*.switch2.eth[5].bitrate = 2100Mbps
*.switch2.eth[6].bitrate = 1800Mbps
*.switch2.eth[7].bitrate = 2200Mbps
*.switch2.eth[8].bitrate = 2400Mbps
*.switch2.eth[9].bitrate = 1500Mbps
*.switch2.eth[10].bitrate = 2300Mbps
*.switch2.eth[11].bitrate = 1900Mbps
*.switch2.eth[12].bitrate = 2100Mbps
*.switch2.eth[13].bitrate = 2100Mbps
*.switch2.eth[14].bitrate = 1500Mbps
*.switch2.eth[15].bitrate = 1400Mbps
*.switch2.eth[16].bitrate = 2400Mbps
*.host3.eth[0].bitrate = 1000Mbps
*.switch3.eth[0].bitrate = 1000Mbps
*.switch3.eth[1].bitrate = 1500Mbps
*.switch3.eth[2].bitrate = 2400Mbps
*.switch3.eth[3].bitrate = 1700Mbps
*.switch3.eth[4].bitrate = 1600Mbps
*.switch3.eth[5].bitrate = 2200Mbps
*.switch3.eth[6].bitrate = 1900Mbps
*.switch3.eth[7].bitrate = 1700Mbps
*.switch3.eth[8].bitrate = 1300Mbps
*.switch3.eth[9].bitrate = 1800Mbps
*.switch3.eth[10].bitrate = 1800Mbps
*.switch3.eth[11].bitrate = 1400Mbps
*.switch3.eth[12].bitrate = 1900Mbps
*.switch3.eth[13].bitrate = 1800Mbps
*.switch3.eth[14].bitrate = 1400Mbps
*.switch3.eth[15].bitrate = 1200Mbps
*.switch3.eth[16].bitrate = 2400Mbps
*.switch3.eth[17].bitrate = 1700Mbps
*.switch3.eth[18].bitrate = 1300Mbps
*.switch3.eth[19].bitrate = 2200Mbps
*.switch3.eth[20].bitrate = 2100Mbps
*.host4.eth[0].bitrate = 1000Mbps
*.switch4.eth[0].bitrate = 1000Mbps
*.switch4.eth[1].bitrate = 2100Mbps
*.switch4.eth[2].bitrate = 1400Mbps
*.switch4.eth[3].bitrate = 1600Mbps
*.switch4.eth[4].bitrate = 1700Mbps
*.switch4.eth[5].bitrate = 1400Mbps
*.switch4.eth[6].bitrate = 1800Mbps
*.switch4.eth[7].bitrate = 1300Mbps
*.switch4.eth[8].bitrate = 1600Mbps
*.switch4.eth[9].bitrate = 2000Mbps
*.switch4.eth[10].bitrate = 1300Mbps
*.switch4.eth[11].bitrate = 1600Mbps
*.switch4.eth[12].bitrate = 1600Mbps
*.switch4.eth[13].bitrate = 2400Mbps
*.switch4.eth[14].bitrate = 1600Mbps
*.switch4.eth[15].bitrate = 2400Mbps
*.switch4.eth[16].bitrate = 1400Mbps
*.switch4.eth[17].bitrate = 1700Mbps
*.host5.eth[0].bitrate = 1000Mbps
*.switch5.eth[0].bitrate = 1000Mbps
*.switch5.eth[1].bitrate = 2300Mbps
*.switch5.eth[2].bitrate = 2000Mbps
*.switch5.eth[3].bitrate = 2100Mbps
*.switch5.eth[4].bitrate = 2400Mbps
*.switch5.eth[5].bitrate = 2100Mbps
*.switch5.eth[6].bitrate = 1400Mbps
*.switch5.eth[7].bitrate = 2400Mbps
*.switch5.eth[8].bitrate = 1400Mbps
*.switch5.eth[9].bitrate = 1200Mbps
*.switch5.eth[10].bitrate = 2100Mbps
*.switch5.eth[11].bitrate = 2000Mbps
*.switch5.eth[12].bitrate = 1200Mbps
*.switch5.eth[13].bitrate = 1300Mbps
*.switch5.eth[14].bitrate = 2400Mbps
*.switch5.eth[15].bitrate = 1600Mbps
*.switch5.eth[16].bitrate = 2100Mbps
*.switch5.eth[17].bitrate = 2000Mbps
*.switch5.eth[18].bitrate = 1900Mbps
*.switch5.eth[19].bitrate = 1300Mbps
*.switch5.eth[20].bitrate = 1500Mbps
*.switch5.eth[21].bitrate = 2400Mbps
*.switch5.eth[22].bitrate = 1200Mbps
*.host6.eth[0].bitrate = 1000Mbps
*.switch6.eth[0].bitrate = 1000Mbps
*.switch6.eth[1].bitrate = 2300Mbps
*.switch6.eth[2].bitrate = 1400Mbps
*.switch6.eth[3].bitrate = 1800Mbps
*.switch6.eth[4].bitrate = 1400Mbps
*.switch6.eth[5].bitrate = 2000Mbps
*.switch6.eth[6].bitrate = 2400Mbps
*.switch6.eth[7].bitrate = 2100Mbps
*.switch6.eth[8].bitrate = 1900Mbps
*.switch6.eth[9].bitrate = 1600Mbps
*.switch6.eth[10].bitrate = 1700Mbps
*.switch6.eth[11].bitrate = 1600Mbps
*.switch6.eth[12].bitrate = 2100Mbps
*.switch6.eth[13].bitrate = 2000Mbps
*.switch6.eth[14].bitrate = 1200Mbps
*.switch6.eth[15].bitrate = 1300Mbps
*.switch6.eth[16].bitrate = 1500Mbps
*.switch6.eth[17].bitrate = 1700Mbps
*.switch6.eth[18].bitrate = 2000Mbps
*.switch6.eth[19].bitrate = 2100Mbps
*.switch6.eth[20].bitrate = 2300Mbps
*.switch6.eth[21].bitrate = 1900Mbps
*.switch6.eth[22].bitrate = 1600Mbps
*.switch6.eth[23].bitrate = 2200Mbps
*.switch6.eth[24].bitrate = 1900Mbps
*.switch6.eth[25].bitrate = 1500Mbps
*.host7.eth[0].bitrate = 1000Mbps
*.switch7.eth[0].bitrate = 1000Mbps
*.switch7.eth[1].bitrate = 1900Mbps
*.switch7.eth[2].bitrate = 1800Mbps
*.switch7.eth[3].bitrate = 1300Mbps
*.switch7.eth[4].bitrate = 1200Mbps
*.switch7.eth[5].bitrate = 1700Mbps
*.switch7.eth[6].bitrate = 2400Mbps
*.switch7.eth[7].bitrate = 1800Mbps
*.switch7.eth[8].bitrate = 2100Mbps
*.switch7.eth[9].bitrate = 1900Mbps
*.switch7.eth[10].bitrate = 2300Mbps
*.switch7.eth[11].bitrate = 1400Mbps
*.switch7.eth[12].bitrate = 2100Mbps
*.switch7.eth[13].bitrate = 2400Mbps
*.switch7.eth[14].bitrate = 1500Mbps
*.switch7.eth[15].bitrate = 1200Mbps
*.switch7.eth[16].bitrate = 1200Mbps
*.switch7.eth[17].bitrate = 2300Mbps
*.switch7.eth[18].bitrate = 1500Mbps
*.switch7.eth[19].bitrate = 1800Mbps
*.switch7.eth[20].bitrate = 1700Mbps
*.switch7.eth[21].bitrate = 2400Mbps
*.host8.eth[0].bitrate = 1000Mbps
*.switch8.eth[0].bitrate = 1000Mbps
*.switch8.eth[1].bitrate = 2000Mbps
*.switch8.eth[2].bitrate = 2000Mbps
*.switch8.eth[3].bitrate = 2200Mbps
*.switch8.eth[4].bitrate = 1600Mbps
*.switch8.eth[5].bitrate = 1600Mbps
*.switch8.eth[6].bitrate = 2300Mbps
*.switch8.eth[7].bitrate = 2000Mbps
*.switch8.eth[8].bitrate = 2000Mbps
*.switch8.eth[9].bitrate = 1800Mbps
*.switch8.eth[10].bitrate = 1800Mbps
*.switch8.eth[11].bitrate = 2000Mbps
*.switch8.eth[12].bitrate = 1900Mbps
*.switch8.eth[13].bitrate = 1700Mbps
*.host9.eth[0].bitrate = 1000Mbps
*.switch9.eth[0].bitrate = 1000Mbps
*.switch9.eth[1].bitrate = 1600Mbps
*.switch9.eth[2].bitrate = 2100Mbps
*.switch9.eth[3].bitrate = 2100Mbps
*.switch9.eth[4].bitrate = 1400Mbps
*.switch9.eth[5].bitrate = 1800Mbps
*.switch9.eth[6].bitrate = 2300Mbps
*.switch9.eth[7].bitrate = 1700Mbps
*.switch9.eth[8].bitrate = 1400Mbps
*.switch9.eth[9].bitrate = 2000Mbps
*.switch9.eth[10].bitrate = 1400Mbps
*.switch9.eth[11].bitrate = 2100Mbps
*.switch9.eth[12].bitrate = 1500Mbps
*.switch9.eth[13].bitrate = 1600Mbps
*.switch9.eth[14].bitrate = 2000Mbps
*.switch9.eth[15].bitrate = 1800Mbps
*.host10.eth[0].bitrate = 1000Mbps
*.switch10.eth[0].bitrate = 1000Mbps
*.switch10.eth[1].bitrate = 1400Mbps
*.switch10.eth[2].bitrate = 2200Mbps
*.switch10.eth[3].bitrate = 2000Mbps
*.switch10.eth[4].bitrate = 2100Mbps
*.switch10.eth[5].bitrate = 1500Mbps
*.switch10.eth[6].bitrate = 1200Mbps
*.switch10.eth[7].bitrate = 2000Mbps
*.switch10.eth[8].bitrate = 1400Mbps
*.switch10.eth[9].bitrate = 1300Mbps
*.switch10.eth[10].bitrate = 2000Mbps
*.switch10.eth[11].bitrate = 2000Mbps
*.switch10.eth[12].bitrate = 1300Mbps
*.host11.eth[0].bitrate = 1000Mbps
*.switch11.eth[0].bitrate = 1000Mbps
*.switch11.eth[1].bitrate = 2100Mbps
*.switch11.eth[2].bitrate = 2400Mbps
*.switch11.eth[3].bitrate = 1900Mbps
*.switch11.eth[4].bitrate = 2000Mbps
*.switch11.eth[5].bitrate = 2000Mbps
*.switch11.eth[6].bitrate = 1400Mbps
*.switch11.eth[7].bitrate = 2100Mbps
*.switch11.eth[8].bitrate = 1700Mbps
*.switch11.eth[9].bitrate = 2200Mbps
*.switch11.eth[10].bitrate = 1200Mbps
*.host12.eth[0].bitrate = 1000Mbps
*.switch12.eth[0].bitrate = 1000Mbps
*.switch12.eth[1].bitrate = 1200Mbps
*.switch12.eth[2].bitrate = 1200Mbps
*.switch12.eth[3].bitrate = 1200Mbps
*.switch12.eth[4].bitrate = 2400Mbps
*.switch12.eth[5].bitrate = 1400Mbps
*.switch12.eth[6].bitrate = 1400Mbps
*.switch12.eth[7].bitrate = 1500Mbps
*.switch12.eth[8].bitrate = 1500Mbps
*.switch12.eth[9].bitrate = 2400Mbps
*.switch12.eth[10].bitrate = 1900Mbps
*.switch12.eth[11].bitrate = 1600Mbps
*.switch12.eth[12].bitrate = 1500Mbps
*.switch12.eth[13].bitrate = 2100Mbps
*.switch12.eth[14].bitrate = 1200Mbps
*.switch12.eth[15].bitrate = 1500Mbps
*.switch12.eth[16].bitrate = 1200Mbps
*.switch12.eth[17].bitrate = 2300Mbps
*.switch12.eth[18].bitrate = 1700Mbps
*.switch12.eth[19].bitrate = 1300Mbps
*.switch12.eth[20].bitrate = 2000Mbps
*.switch12.eth[21].bitrate = 1500Mbps
*.switch12.eth[22].bitrate = 2100Mbps
*.switch12.eth[23].bitrate = 1800Mbps
*.host13.eth[0].bitrate = 1000Mbps
*.switch13.eth[0].bitrate = 1000Mbps
*.switch13.eth[1].bitrate = 1900Mbps
*.switch13.eth[2].bitrate = 2000Mbps
*.switch13.eth[3].bitrate = 2000Mbps
*.switch13.eth[4].bitrate = 1300Mbps
*.switch13.eth[5].bitrate = 1200Mbps
*.switch13.eth[6].bitrate = 1400Mbps
*.switch13.eth[7].bitrate = 1700Mbps
*.switch13.eth[8].bitrate = 2200Mbps
*.switch13.eth[9].bitrate = 1800Mbps
*.switch13.eth[10].bitrate = 2000Mbps
*.switch13.eth[11].bitrate = 1700Mbps
*.switch13.eth[12].bitrate = 1700Mbps
*.switch13.eth[13].bitrate = 2200Mbps
*.switch13.eth[14].bitrate = 1200Mbps
*.switch13.eth[15].bitrate = 1400Mbps
*.switch13.eth[16].bitrate = 1500Mbps
*.switch13.eth[17].bitrate = 1300Mbps
*.switch13.eth[18].bitrate = 1500Mbps
*.host14.eth[0].bitrate = 1000Mbps
*.switch14.eth[0].bitrate = 1000Mbps
*.switch14.eth[1].bitrate = 2000Mbps
*.switch14.eth[2].bitrate = 1300Mbps
*.switch14.eth[3].bitrate = 1500Mbps
*.switch14.eth[4].bitrate = 2100Mbps
*.switch14.eth[5].bitrate = 1500Mbps
*.switch14.eth[6].bitrate = 1700Mbps
*.switch14.eth[7].bitrate = 2400Mbps
*.switch14.eth[8].bitrate = 1300Mbps
*.switch14.eth[9].bitrate = 1300Mbps
*.switch14.eth[10].bitrate = 1700Mbps
*.switch14.eth[11].bitrate = 1900Mbps
*.switch14.eth[12].bitrate = 2000Mbps
*.switch14.eth[13].bitrate = 2200Mbps
*.switch14.eth[14].bitrate = 1500Mbps
*.switch14.eth[15].bitrate = 1400Mbps
*.host15.eth[0].bitrate = 1000Mbps
*.switch15.eth[0].bitrate = 1000Mbps
*.switch15.eth[1].bitrate = 1700Mbps
*.switch15.eth[2].bitrate = 2300Mbps
*.switch15.eth[3].bitrate = 2400Mbps
*.switch15.eth[4].bitrate = 1700Mbps
*.switch15.eth[5].bitrate = 1500Mbps
*.switch15.eth[6].bitrate = 1400Mbps
*.switch15.eth[7].bitrate = 1200Mbps
*.switch15.eth[8].bitrate = 1800Mbps
*.switch15.eth[9].bitrate = 2400Mbps
*.switch15.eth[10].bitrate = 2200Mbps
*.switch15.eth[11].bitrate = 2400Mbps
*.switch15.eth[12].bitrate = 1500Mbps
*.switch15.eth[13].bitrate = 1900Mbps
*.switch15.eth[14].bitrate = 2400Mbps
*.switch15.eth[15].bitrate = 1700Mbps
*.switch15.eth[16].bitrate = 1800Mbps
*.switch15.eth[17].bitrate = 1200Mbps
*.switch15.eth[18].bitrate = 1500Mbps
*.switch15.eth[19].bitrate = 1500Mbps
*.switch15.eth[20].bitrate = 1900Mbps
*.switch15.eth[21].bitrate = 1400Mbps
*.switch15.eth[22].bitrate = 2300Mbps
*.switch15.eth[23].bitrate = 1300Mbps
*.host16.eth[0].bitrate = 1000Mbps
*.switch16.eth[0].bitrate = 1000Mbps
*.switch16.eth[1].bitrate = 1300Mbps
*.switch16.eth[2].bitrate = 1500Mbps
*.switch16.eth[3].bitrate = 1700Mbps
*.switch16.eth[4].bitrate = 2000Mbps
*.switch16.eth[5].bitrate = 1200Mbps
*.switch16.eth[6].bitrate = 1500Mbps
*.switch16.eth[7].bitrate = 1300Mbps
*.switch16.eth[8].bitrate = 2300Mbps
*.switch16.eth[9].bitrate = 1900Mbps
*.switch16.eth[10].bitrate = 2100Mbps
*.switch16.eth[11].bitrate = 1400Mbps
*.switch16.eth[12].bitrate = 2400Mbps
*.switch16.eth[13].bitrate = 2100Mbps
*.switch16.eth[14].bitrate = 1900Mbps
*.switch16.eth[15].bitrate = 1700Mbps
*.switch16.eth[16].bitrate = 1300Mbps
*.host17.eth[0].bitrate = 1000Mbps
*.switch17.eth[0].bitrate = 1000Mbps
*.switch17.eth[1].bitrate = 2300Mbps
*.switch17.eth[2].bitrate = 1300Mbps
*.switch17.eth[3].bitrate = 1700Mbps
*.switch17.eth[4].bitrate = 2200Mbps
*.switch17.eth[5].bitrate = 1400Mbps
*.switch17.eth[6].bitrate = 1900Mbps
*.switch17.eth[7].bitrate = 1500Mbps
*.switch17.eth[8].bitrate = 2100Mbps
*.switch17.eth[9].bitrate = 1700Mbps
*.switch17.eth[10].bitrate = 1500Mbps
*.switch17.eth[11].bitrate = 1800Mbps
*.switch17.eth[12].bitrate = 1300Mbps
*.switch17.eth[13].bitrate = 1300Mbps
*.switch17.eth[14].bitrate = 1700Mbps
*.host18.eth[0].bitrate = 1000Mbps
*.switch18.eth[0].bitrate = 1000Mbps
*.switch18.eth[1].bitrate = 2300Mbps
*.switch18.eth[2].bitrate = 2400Mbps
*.switch18.eth[3].bitrate = 1300Mbps
*.switch18.eth[4].bitrate = 1600Mbps
*.switch18.eth[5].bitrate = 2100Mbps
*.switch18.eth[6].bitrate = 1200Mbps
*.switch18.eth[7].bitrate = 1600Mbps
*.switch18.eth[8].bitrate = 2000Mbps
*.switch18.eth[9].bitrate = 1300Mbps
*.switch18.eth[10].bitrate = 1200Mbps
*.switch18.eth[11].bitrate = 2300Mbps
*.switch18.eth[12].bitrate = 1900Mbps
*.switch18.eth[13].bitrate = 2100Mbps
*.switch18.eth[14].bitrate = 2100Mbps
*.switch18.eth[15].bitrate = 1300Mbps
*.switch18.eth[16].bitrate = 1500Mbps
*.host19.eth[0].bitrate = 1000Mbps
*.switch19.eth[0].bitrate = 1000Mbps
*.switch19.eth[1].bitrate = 1400Mbps
*.switch19.eth[2].bitrate = 2400Mbps
*.switch19.eth[3].bitrate = 1900Mbps
*.switch19.eth[4].bitrate = 1800Mbps
*.switch19.eth[5].bitrate = 1600Mbps
*.switch19.eth[6].bitrate = 1600Mbps
*.switch19.eth[7].bitrate = 2300Mbps
*.switch19.eth[8].bitrate = 2300Mbps
*.switch19.eth[9].bitrate = 1800Mbps
*.switch19.eth[10].bitrate = 2000Mbps
*.switch19.eth[11].bitrate = 1400Mbps
*.switch19.eth[12].bitrate = 1200Mbps
*.switch19.eth[13].bitrate = 1500Mbps
*.switch19.eth[14].bitrate = 1400Mbps
*.switch19.eth[15].bitrate = 1300Mbps
*.host0.numApps = 5
*.host0.app[0].typename = "UdpBasicApp"
*.host0.app[0].destAddresses = "host6"
*.host0.app[0].source.packetNameFormat = "%M-%m-%c"
*.host0.app[0].source.displayStringTextFormat = "sent %p pk (%l)"
*.host0.app[0].messageLength = 17B
*.host0.app[0].sendInterval = 1ms
*.host0.app[0].startTime = 5ms
*.host0.app[0].stopTime = 33ms
*.host0.app[0].display-name = "type2_2"
*.host0.app[0].destPort = 1000
*.host0.app[1].typename = "UdpBasicApp"
*.host0.app[1].destAddresses = "host6"
*.host0.app[1].source.packetNameFormat = "%M-%m-%c"
*.host0.app[1].source.displayStringTextFormat = "sent %p pk (%l)"
*.host0.app[1].messageLength = 17B
*.host0.app[1].sendInterval = 1ms
*.host0.app[1].startTime = 36ms
*.host0.app[1].stopTime = 37ms
*.host0.app[1].display-name = "type2_2"
*.host0.app[1].destPort = 1000
*.host0.app[2].typename = "UdpBasicApp"
*.host0.app[2].destAddresses = "host6"
*.host0.app[2].source.packetNameFormat = "%M-%m-%c"
*.host0.app[2].source.displayStringTextFormat = "sent %p pk (%l)"
*.host0.app[2].messageLength = 17B
*.host0.app[2].sendInterval = 1ms
*.host0.app[2].startTime = 40ms
*.host0.app[2].stopTime = 47ms
*.host0.app[2].display-name = "type2_2"
*.host0.app[2].destPort = 1000
*.host0.app[3].typename = "UdpBasicApp"
*.host0.app[3].destAddresses = "host6"
*.host0.app[3].source.packetNameFormat = "%M-%m-%c"
*.host0.app[3].source.displayStringTextFormat = "sent %p pk (%l)"
*.host0.app[3].messageLength = 17B
*.host0.app[3].sendInterval = 1ms
*.host0.app[3].startTime = 50ms
*.host0.app[3].stopTime = 64ms
*.host0.app[3].display-name = "type2_2"
*.host0.app[3].destPort = 1000
*.host0.app[4].typename = "UdpBasicApp"
*.host0.app[4].destAddresses = "host6"
*.host0.app[4].source.packetNameFormat = "%M-%m-%c"
*.host0.app[4].source.displayStringTextFormat = "sent %p pk (%l)"
*.host0.app[4].messageLength = 17B
*.host0.app[4].sendInterval = 1ms
*.host0.app[4].startTime = 81ms
*.host0.app[4].stopTime = 100ms
*.host0.app[4].display-name = "type2_2"
*.host0.app[4].destPort = 1000
*.host1.numApps = 0
*.host2.numApps = 13
*.host2.app[0].typename = "UdpSinkApp"
*.host2.app[0].io.localPort = 1000
*.host2.app[1].typename = "UdpSourceApp"
*.host2.app[1].io.destAddress = "host9"
*.host2.app[1].source.packetNameFormat = "%M-%m-%c"
*.host2.app[1].source.displayStringTextFormat = "sent %p pk (%l)"
*.host2.app[1].source.packetLength = 18B
*.host2.app[1].source.productionInterval = 1ms
*.host2.app[1].display-name = "type1_3"
*.host2.app[1].io.destPort = 1000
*.host2.app[2].typename = "UdpSourceApp"
*.host2.app[2].io.destAddress = "host15"
*.host2.app[2].source.packetNameFormat = "%M-%m-%c"
*.host2.app[2].source.displayStringTextFormat = "sent %p pk (%l)"
*.host2.app[2].source.packetLength = 18B
*.host2.app[2].source.productionInterval = 1ms
*.host2.app[2].display-name = "type1_10"
*.host2.app[2].io.destPort = 1000
*.host2.app[3].typename = "UdpBasicApp"
*.host2.app[3].destAddresses = "host9"
*.host2.app[3].source.packetNameFormat = "%M-%m-%c"
*.host2.app[3].source.displayStringTextFormat = "sent %p pk (%l)"
*.host2.app[3].messageLength = 20B
*.host2.app[3].sendInterval = 1ms
*.host2.app[3].startTime = 3ms
*.host2.app[3].stopTime = 10ms
*.host2.app[3].display-name = "type2_3"
*.host2.app[3].destPort = 1001
*.host2.app[4].typename = "UdpBasicApp"
*.host2.app[4].destAddresses = "host9"
*.host2.app[4].source.packetNameFormat = "%M-%m-%c"
*.host2.app[4].source.displayStringTextFormat = "sent %p pk (%l)"
*.host2.app[4].messageLength = 20B
*.host2.app[4].sendInterval = 1ms
*.host2.app[4].startTime = 25ms
*.host2.app[4].stopTime = 38ms
*.host2.app[4].display-name = "type2_3"
*.host2.app[4].destPort = 1001
*.host2.app[5].typename = "UdpBasicApp"
*.host2.app[5].destAddresses = "host9"
*.host2.app[5].source.packetNameFormat = "%M-%m-%c"
*.host2.app[5].source.displayStringTextFormat = "sent %p pk (%l)"
*.host2.app[5].messageLength = 20B
*.host2.app[5].sendInterval = 1ms
*.host2.app[5].startTime = 39ms
*.host2.app[5].stopTime = 43ms
*.host2.app[5].display-name = "type2_3"
*.host2.app[5].destPort = 1001
*.host2.app[6].typename = "UdpBasicApp"
*.host2.app[6].destAddresses = "host9"
*.host2.app[6].source.packetNameFormat = "%M-%m-%c"
*.host2.app[6].source.displayStringTextFormat = "sent %p pk (%l)"
*.host2.app[6].messageLength = 20B
*.host2.app[6].sendInterval = 1ms
*.host2.app[6].startTime = 48ms
*.host2.app[6].stopTime = 60ms
*.host2.app[6].display-name = "type2_3"
*.host2.app[6].destPort = 1001
*.host2.app[7].typename = "UdpBasicApp"
*.host2.app[7].destAddresses = "host9"
*.host2.app[7].source.packetNameFormat = "%M-%m-%c"
*.host2.app[7].source.displayStringTextFormat = "sent %p pk (%l)"
*.host2.app[7].messageLength = 20B
*.host2.app[7].sendInterval = 1ms
*.host2.app[7].startTime = 61ms
*.host2.app[7].stopTime = 71ms
*.host2.app[7].display-name = "type2_3"
*.host2.app[7].destPort = 1001
*.host2.app[8].typename = "UdpBasicApp"
*.host2.app[8].destAddresses = "host9"
*.host2.app[8].source.packetNameFormat = "%M-%m-%c"
*.host2.app[8].source.displayStringTextFormat = "sent %p pk (%l)"
*.host2.app[8].messageLength = 20B
*.host2.app[8].sendInterval = 1ms
*.host2.app[8].startTime = 72ms
*.host2.app[8].stopTime = 78ms
*.host2.app[8].display-name = "type2_3"
*.host2.app[8].destPort = 1001
*.host2.app[9].typename = "UdpBasicApp"
*.host2.app[9].destAddresses = "host9"
*.host2.app[9].source.packetNameFormat = "%M-%m-%c"
*.host2.app[9].source.displayStringTextFormat = "sent %p pk (%l)"
*.host2.app[9].messageLength = 20B
*.host2.app[9].sendInterval = 1ms
*.host2.app[9].startTime = 89ms
*.host2.app[9].stopTime = 98ms
*.host2.app[9].display-name = "type2_3"
*.host2.app[9].destPort = 1001
*.host2.app[10].typename = "UdpSinkApp"
*.host2.app[10].io.localPort = 1001
*.host2.app[11].typename = "UdpSinkApp"
*.host2.app[11].io.localPort = 1002
*.host2.app[12].typename = "UdpSinkApp"
*.host2.app[12].io.localPort = 1003
*.host3.numApps = 1
*.host3.app[0].typename = "UdpSinkApp"
*.host3.app[0].io.localPort = 1000
*.host4.numApps = 1
*.host4.app[0].typename = "UdpSourceApp"
*.host4.app[0].io.destAddress = "host17"
*.host4.app[0].source.packetNameFormat = "%M-%m-%c"
*.host4.app[0].source.displayStringTextFormat = "sent %p pk (%l)"
*.host4.app[0].source.packetLength = 12B
*.host4.app[0].source.productionInterval = 1ms
*.host4.app[0].display-name = "type1_9"
*.host4.app[0].io.destPort = 1001
*.host5.numApps = 9
*.host5.app[0].typename = "UdpSinkApp"
*.host5.app[0].io.localPort = 1000
*.host5.app[1].typename = "UdpBasicApp"
*.host5.app[1].destAddresses = "host13"
*.host5.app[1].source.packetNameFormat = "%M-%m-%c"
*.host5.app[1].source.displayStringTextFormat = "sent %p pk (%l)"
*.host5.app[1].messageLength = 15B
*.host5.app[1].sendInterval = 1ms
*.host5.app[1].startTime = 1ms
*.host5.app[1].stopTime = 8ms
*.host5.app[1].display-name = "type2_10"
*.host5.app[1].destPort = 1002
*.host5.app[2].typename = "UdpBasicApp"
*.host5.app[2].destAddresses = "host13"
*.host5.app[2].source.packetNameFormat = "%M-%m-%c"
*.host5.app[2].source.displayStringTextFormat = "sent %p pk (%l)"
*.host5.app[2].messageLength = 15B
*.host5.app[2].sendInterval = 1ms
*.host5.app[2].startTime = 17ms
*.host5.app[2].stopTime = 33ms
*.host5.app[2].display-name = "type2_10"
*.host5.app[2].destPort = 1002
*.host5.app[3].typename = "UdpBasicApp"
*.host5.app[3].destAddresses = "host13"
*.host5.app[3].source.packetNameFormat = "%M-%m-%c"
*.host5.app[3].source.displayStringTextFormat = "sent %p pk (%l)"
*.host5.app[3].messageLength = 15B
*.host5.app[3].sendInterval = 1ms
*.host5.app[3].startTime = 39ms
*.host5.app[3].stopTime = 40ms
*.host5.app[3].display-name = "type2_10"
*.host5.app[3].destPort = 1002
*.host5.app[4].typename = "UdpBasicApp"
*.host5.app[4].destAddresses = "host13"
*.host5.app[4].source.packetNameFormat = "%M-%m-%c"
*.host5.app[4].source.displayStringTextFormat = "sent %p pk (%l)"
*.host5.app[4].messageLength = 15B
*.host5.app[4].sendInterval = 1ms
*.host5.app[4].startTime = 43ms
*.host5.app[4].stopTime = 46ms
*.host5.app[4].display-name = "type2_10"
*.host5.app[4].destPort = 1002
*.host5.app[5].typename = "UdpBasicApp"
*.host5.app[5].destAddresses = "host13"
*.host5.app[5].source.packetNameFormat = "%M-%m-%c"
*.host5.app[5].source.displayStringTextFormat = "sent %p pk (%l)"
*.host5.app[5].messageLength = 15B
*.host5.app[5].sendInterval = 1ms
*.host5.app[5].startTime = 48ms
*.host5.app[5].stopTime = 53ms
*.host5.app[5].display-name = "type2_10"
*.host5.app[5].destPort = 1002
*.host5.app[6].typename = "UdpBasicApp"
*.host5.app[6].destAddresses = "host13"
*.host5.app[6].source.packetNameFormat = "%M-%m-%c"
*.host5.app[6].source.displayStringTextFormat = "sent %p pk (%l)"
*.host5.app[6].messageLength = 15B
*.host5.app[6].sendInterval = 1ms
*.host5.app[6].startTime = 57ms
*.host5.app[6].stopTime = 59ms
*.host5.app[6].display-name = "type2_10"
*.host5.app[6].destPort = 1002
*.host5.app[7].typename = "UdpBasicApp"
*.host5.app[7].destAddresses = "host13"
*.host5.app[7].source.packetNameFormat = "%M-%m-%c"
*.host5.app[7].source.displayStringTextFormat = "sent %p pk (%l)"
*.host5.app[7].messageLength = 15B
*.host5.app[7].sendInterval = 1ms
*.host5.app[7].startTime = 79ms
*.host5.app[7].stopTime = 83ms
*.host5.app[7].display-name = "type2_10"
*.host5.app[7].destPort = 1002
*.host5.app[8].typename = "UdpBasicApp"
*.host5.app[8].destAddresses = "host13"
*.host5.app[8].source.packetNameFormat = "%M-%m-%c"
*.host5.app[8].source.displayStringTextFormat = "sent %p pk (%l)"
*.host5.app[8].messageLength = 15B
*.host5.app[8].sendInterval = 1ms
*.host5.app[8].startTime = 98ms
*.host5.app[8].stopTime = 100ms
*.host5.app[8].display-name = "type2_10"
*.host5.app[8].destPort = 1002
*.host6.numApps = 23
*.host6.app[0].typename = "UdpSinkApp"
*.host6.app[0].io.localPort = 1000
*.host6.app[1].typename = "UdpBasicApp"
*.host6.app[1].destAddresses = "host14"
*.host6.app[1].source.packetNameFormat = "%M-%m-%c"
*.host6.app[1].source.displayStringTextFormat = "sent %p pk (%l)"
*.host6.app[1].messageLength = 13B
*.host6.app[1].sendInterval = 1ms
*.host6.app[1].startTime = 12ms
*.host6.app[1].stopTime = 30ms
*.host6.app[1].display-name = "type2_5"
*.host6.app[1].destPort = 1002
*.host6.app[2].typename = "UdpBasicApp"
*.host6.app[2].destAddresses = "host14"
*.host6.app[2].source.packetNameFormat = "%M-%m-%c"
*.host6.app[2].source.displayStringTextFormat = "sent %p pk (%l)"
*.host6.app[2].messageLength = 13B
*.host6.app[2].sendInterval = 1ms
*.host6.app[2].startTime = 31ms
*.host6.app[2].stopTime = 34ms
*.host6.app[2].display-name = "type2_5"
*.host6.app[2].destPort = 1002
*.host6.app[3].typename = "UdpBasicApp"
*.host6.app[3].destAddresses = "host14"
*.host6.app[3].source.packetNameFormat = "%M-%m-%c"
*.host6.app[3].source.displayStringTextFormat = "sent %p pk (%l)"
*.host6.app[3].messageLength = 13B
*.host6.app[3].sendInterval = 1ms
*.host6.app[3].startTime = 44ms
*.host6.app[3].stopTime = 46ms
*.host6.app[3].display-name = "type2_5"
*.host6.app[3].destPort = 1002
*.host6.app[4].typename = "UdpBasicApp"
*.host6.app[4].destAddresses = "host14"
*.host6.app[4].source.packetNameFormat = "%M-%m-%c"
*.host6.app[4].source.displayStringTextFormat = "sent %p pk (%l)"
*.host6.app[4].messageLength = 13B
*.host6.app[4].sendInterval = 1ms
*.host6.app[4].startTime = 47ms
*.host6.app[4].stopTime = 57ms
*.host6.app[4].display-name = "type2_5"
*.host6.app[4].destPort = 1002
*.host6.app[5].typename = "UdpBasicApp"
*.host6.app[5].destAddresses = "host14"
*.host6.app[5].source.packetNameFormat = "%M-%m-%c"
*.host6.app[5].source.displayStringTextFormat = "sent %p pk (%l)"
*.host6.app[5].messageLength = 13B
*.host6.app[5].sendInterval = 1ms
*.host6.app[5].startTime = 62ms
*.host6.app[5].stopTime = 64ms
*.host6.app[5].display-name = "type2_5"
*.host6.app[5].destPort = 1002
*.host6.app[6].typename = "UdpBasicApp"
*.host6.app[6].destAddresses = "host14"
*.host6.app[6].source.packetNameFormat = "%M-%m-%c"
*.host6.app[6].source.displayStringTextFormat = "sent %p pk (%l)"
*.host6.app[6].messageLength = 13B
*.host6.app[6].sendInterval = 1ms
*.host6.app[6].startTime = 72ms
*.host6.app[6].stopTime = 81ms
*.host6.app[6].display-name = "type2_5"
*.host6.app[6].destPort = 1002
*.host6.app[7].typename = "UdpBasicApp"
*.host6.app[7].destAddresses = "host14"
*.host6.app[7].source.packetNameFormat = "%M-%m-%c"
*.host6.app[7].source.displayStringTextFormat = "sent %p pk (%l)"
*.host6.app[7].messageLength = 13B
*.host6.app[7].sendInterval = 1ms
*.host6.app[7].startTime = 82ms
*.host6.app[7].stopTime = 100ms
*.host6.app[7].display-name = "type2_5"
*.host6.app[7].destPort = 1002
*.host6.app[8].typename = "UdpBasicApp"
*.host6.app[8].destAddresses = "host7"
*.host6.app[8].source.packetNameFormat = "%M-%m-%c"
*.host6.app[8].source.displayStringTextFormat = "sent %p pk (%l)"
*.host6.app[8].messageLength = 13B
*.host6.app[8].sendInterval = 1ms
*.host6.app[8].startTime = 9ms
*.host6.app[8].stopTime = 19ms
*.host6.app[8].display-name = "type2_8"
*.host6.app[8].destPort = 1000
*.host6.app[9].typename = "UdpBasicApp"
*.host6.app[9].destAddresses = "host7"
*.host6.app[9].source.packetNameFormat = "%M-%m-%c"
*.host6.app[9].source.displayStringTextFormat = "sent %p pk (%l)"
*.host6.app[9].messageLength = 13B
*.host6.app[9].sendInterval = 1ms
*.host6.app[9].startTime = 20ms
*.host6.app[9].stopTime = 34ms
*.host6.app[9].display-name = "type2_8"
*.host6.app[9].destPort = 1000
*.host6.app[10].typename = "UdpBasicApp"
*.host6.app[10].destAddresses = "host7"
*.host6.app[10].source.packetNameFormat = "%M-%m-%c"
*.host6.app[10].source.displayStringTextFormat = "sent %p pk (%l)"
*.host6.app[10].messageLength = 13B
*.host6.app[10].sendInterval = 1ms
*.host6.app[10].startTime = 41ms
*.host6.app[10].stopTime = 46ms
*.host6.app[10].display-name = "type2_8"
*.host6.app[10].destPort = 1000
*.host6.app[11].typename = "UdpBasicApp"
*.host6.app[11].destAddresses = "host7"
*.host6.app[11].source.packetNameFormat = "%M-%m-%c"
*.host6.app[11].source.displayStringTextFormat = "sent %p pk (%l)"
*.host6.app[11].messageLength = 13B
*.host6.app[11].sendInterval = 1ms
*.host6.app[11].startTime = 52ms
*.host6.app[11].stopTime = 53ms
*.host6.app[11].display-name = "type2_8"
*.host6.app[11].destPort = 1000
*.host6.app[12].typename = "UdpBasicApp"
*.host6.app[12].destAddresses = "host7"
*.host6.app[12].source.packetNameFormat = "%M-%m-%c"
*.host6.app[12].source.displayStringTextFormat = "sent %p pk (%l)"
*.host6.app[12].messageLength = 13B
*.host6.app[12].sendInterval = 1ms
*.host6.app[12].startTime = 57ms
*.host6.app[12].stopTime = 65ms
*.host6.app[12].display-name = "type2_8"
*.host6.app[12].destPort = 1000
*.host6.app[13].typename = "UdpBasicApp"
*.host6.app[13].destAddresses = "host7"
*.host6.app[13].source.packetNameFormat = "%M-%m-%c"
*.host6.app[13].source.displayStringTextFormat = "sent %p pk (%l)"
*.host6.app[13].messageLength = 13B
*.host6.app[13].sendInterval = 1ms
*.host6.app[13].startTime = 79ms
*.host6.app[13].stopTime = 80ms
*.host6.app[13].display-name = "type2_8"
*.host6.app[13].destPort = 1000