[General]
network = TSN_multipath
sim-time-limit = 10ms
*.macForwardingTableConfigurator.typename = ""
*.*.hasStreamRedundancy = true
*.*.bridging.streamRelay.typename = "StreamRelayLayer"
*.*.bridging.streamCoder.typename = "StreamCoderLayer"
*.streamRedundancyConfigurator.typename = "StreamRedundancyConfigurator"
*.host0.eth[0].bitrate = 1000Mbps
*.switch0.eth[0].bitrate = 1000Mbps
*.switch0.eth[1].bitrate = 1400Mbps
*.switch0.eth[2].bitrate = 2000Mbps
*.switch0.eth[3].bitrate = 2000Mbps
*.switch0.eth[4].bitrate = 1600Mbps
*.switch0.eth[5].bitrate = 2000Mbps
*.host1.eth[0].bitrate = 1000Mbps
*.switch1.eth[0].bitrate = 1000Mbps
*.switch1.eth[1].bitrate = 2000Mbps
*.switch1.eth[2].bitrate = 1800Mbps
*.switch1.eth[3].bitrate = 1800Mbps
*.switch1.eth[4].bitrate = 2000Mbps
*.host2.eth[0].bitrate = 1000Mbps
*.switch2.eth[0].bitrate = 1000Mbps
*.switch2.eth[1].bitrate = 1400Mbps
*.switch2.eth[2].bitrate = 1600Mbps
*.switch2.eth[3].bitrate = 1900Mbps
*.switch2.eth[4].bitrate = 2100Mbps
*.switch2.eth[5].bitrate = 1400Mbps
*.host3.eth[0].bitrate = 1000Mbps
*.switch3.eth[0].bitrate = 1000Mbps
*.switch3.eth[1].bitrate = 1900Mbps
*.switch3.eth[2].bitrate = 1800Mbps
*.switch3.eth[3].bitrate = 2100Mbps
*.switch3.eth[4].bitrate = 2300Mbps
*.host4.eth[0].bitrate = 1000Mbps
*.switch4.eth[0].bitrate = 1000Mbps
*.switch4.eth[1].bitrate = 2000Mbps
*.switch4.eth[2].bitrate = 1800Mbps
*.switch4.eth[3].bitrate = 2300Mbps
*.switch4.eth[4].bitrate = 2000Mbps
*.switch4.eth[5].bitrate = 2000Mbps
*.switch4.eth[6].bitrate = 1400Mbps
*.host0.numApps = 6
*.host0.app[0].typename = "UdpSinkApp"
*.host0.app[0].io.localPort = 1000
*.host0.app[1].typename = "UdpBasicApp"
*.host0.app[1].destAddresses = "host3"
*.host0.app[1].source.packetNameFormat = "%M-%m-%c"
*.host0.app[1].source.displayStringTextFormat = "sent %p pk (%l)"
*.host0.app[1].messageLength = 23B
*.host0.app[1].sendInterval = 1ms
*.host0.app[1].startTime = 3200us
*.host0.app[1].stopTime = 4800us
*.host0.app[1].display-name = "type2_2"
*.host0.app[1].destPort = 1003
*.host0.app[2].typename = "UdpBasicApp"
*.host0.app[2].destAddresses = "host3"
*.host0.app[2].source.packetNameFormat = "%M-%m-%c"
*.host0.app[2].source.displayStringTextFormat = "sent %p pk (%l)"
*.host0.app[2].messageLength = 23B
*.host0.app[2].sendInterval = 1ms
*.host0.app[2].startTime = 5700us
*.host0.app[2].stopTime = 5800us
*.host0.app[2].display-name = "type2_2"
*.host0.app[2].destPort = 1003
*.host0.app[3].typename = "UdpBasicApp"
*.host0.app[3].destAddresses = "host3"
*.host0.app[3].source.packetNameFormat = "%M-%m-%c"
*.host0.app[3].source.displayStringTextFormat = "sent %p pk (%l)"
*.host0.app[3].messageLength = 23B
*.host0.app[3].sendInterval = 1ms
*.host0.app[3].startTime = 7800us
*.host0.app[3].stopTime = 8000us
*.host0.app[3].display-name = "type2_2"
*.host0.app[3].destPort = 1003
*.host0.app[4].typename = "UdpBasicApp"
*.host0.app[4].destAddresses = "host3"
*.host0.app[4].source.packetNameFormat = "%M-%m-%c"
*.host0.app[4].source.displayStringTextFormat = "sent %p pk (%l)"
*.host0.app[4].messageLength = 23B
*.host0.app[4].sendInterval = 1ms
*.host0.app[4].startTime = 8100us
*.host0.app[4].stopTime = 8600us
*.host0.app[4].display-name = "type2_2"
*.host0.app[4].destPort = 1003
*.host0.app[5].typename = "UdpSinkApp"
*.host0.app[5].io.localPort = 1001
*.host1.numApps = 8
*.host1.app[0].typename = "UdpBasicApp"
*.host1.app[0].destAddresses = "host0"
*.host1.app[0].source.packetNameFormat = "%M-%m-%c"
*.host1.app[0].source.displayStringTextFormat = "sent %p pk (%l)"
*.host1.app[0].messageLength = 16B
*.host1.app[0].sendInterval = 1ms
*.host1.app[0].startTime = 0us
*.host1.app[0].stopTime = 300us
*.host1.app[0].display-name = "type2_3"
*.host1.app[0].destPort = 1001
*.host1.app[1].typename = "UdpBasicApp"
*.host1.app[1].destAddresses = "host0"
*.host1.app[1].source.packetNameFormat = "%M-%m-%c"
*.host1.app[1].source.displayStringTextFormat = "sent %p pk (%l)"
*.host1.app[1].messageLength = 16B
*.host1.app[1].sendInterval = 1ms
*.host1.app[1].startTime = 500us
*.host1.app[1].stopTime = 1500us
*.host1.app[1].display-name = "type2_3"
*.host1.app[1].destPort = 1001
*.host1.app[2].typename = "UdpBasicApp"
*.host1.app[2].destAddresses = "host0"
*.host1.app[2].source.packetNameFormat = "%M-%m-%c"
*.host1.app[2].source.displayStringTextFormat = "sent %p pk (%l)"
*.host1.app[2].messageLength = 16B
*.host1.app[2].sendInterval = 1ms
*.host1.app[2].startTime = 3100us
*.host1.app[2].stopTime = 3400us
*.host1.app[2].display-name = "type2_3"
*.host1.app[2].destPort = 1001
*.host1.app[3].typename = "UdpBasicApp"
*.host1.app[3].destAddresses = "host0"
*.host1.app[3].source.packetNameFormat = "%M-%m-%c"
*.host1.app[3].source.displayStringTextFormat = "sent %p pk (%l)"
*.host1.app[3].messageLength = 16B
*.host1.app[3].sendInterval = 1ms
*.host1.app[3].startTime = 4000us
*.host1.app[3].stopTime = 4200us
*.host1.app[3].display-name = "type2_3"
*.host1.app[3].destPort = 1001
*.host1.app[4].typename = "UdpBasicApp"
*.host1.app[4].destAddresses = "host0"
*.host1.app[4].source.packetNameFormat = "%M-%m-%c"
*.host1.app[4].source.displayStringTextFormat = "sent %p pk (%l)"
*.host1.app[4].messageLength = 16B
*.host1.app[4].sendInterval = 1ms
*.host1.app[4].startTime = 5100us
*.host1.app[4].stopTime = 7500us
*.host1.app[4].display-name = "type2_3"
*.host1.app[4].destPort = 1001
*.host1.app[5].typename = "UdpBasicApp"
*.host1.app[5].destAddresses = "host0"
*.host1.app[5].source.packetNameFormat = "%M-%m-%c"
*.host1.app[5].source.displayStringTextFormat = "sent %p pk (%l)"
*.host1.app[5].messageLength = 16B
*.host1.app[5].sendInterval = 1ms
*.host1.app[5].startTime = 7800us
*.host1.app[5].stopTime = 7900us
*.host1.app[5].display-name = "type2_3"
*.host1.app[5].destPort = 1001
*.host1.app[6].typename = "UdpBasicApp"
*.host1.app[6].destAddresses = "host0"
*.host1.app[6].source.packetNameFormat = "%M-%m-%c"
*.host1.app[6].source.displayStringTextFormat = "sent %p pk (%l)"
*.host1.app[6].messageLength = 16B
*.host1.app[6].sendInterval = 1ms
*.host1.app[6].startTime = 8200us
*.host1.app[6].stopTime = 9400us
*.host1.app[6].display-name = "type2_3"
*.host1.app[6].destPort = 1001
*.host1.app[7].typename = "UdpBasicApp"
*.host1.app[7].destAddresses = "host0"
*.host1.app[7].source.packetNameFormat = "%M-%m-%c"
*.host1.app[7].source.displayStringTextFormat = "sent %p pk (%l)"
*.host1.app[7].messageLength = 16B
*.host1.app[7].sendInterval = 1ms
*.host1.app[7].startTime = 9700us
*.host1.app[7].stopTime = 10000us
*.host1.app[7].display-name = "type2_3"
*.host1.app[7].destPort = 1001
*.host2.numApps = 8
*.host2.app[0].typename = "UdpSourceApp"
*.host2.app[0].io.destAddress = "host3"
*.host2.app[0].source.packetNameFormat = "%M-%m-%c"
*.host2.app[0].source.displayStringTextFormat = "sent %p pk (%l)"
*.host2.app[0].source.packetLength = 22B
*.host2.app[0].source.productionInterval = 1ms
*.host2.app[0].display-name = "type1_0"
*.host2.app[0].io.destPort = 1000
*.host2.app[1].typename = "UdpSourceApp"
*.host2.app[1].io.destAddress = "host0"
*.host2.app[1].source.packetNameFormat = "%M-%m-%c"
*.host2.app[1].source.displayStringTextFormat = "sent %p pk (%l)"
*.host2.app[1].source.packetLength = 15B
*.host2.app[1].source.productionInterval = 1ms
*.host2.app[1].display-name = "type1_1"
*.host2.app[1].io.destPort = 1000
*.host2.app[2].typename = "UdpBasicApp"
*.host2.app[2].destAddresses = "host3"
*.host2.app[2].source.packetNameFormat = "%M-%m-%c"
*.host2.app[2].source.displayStringTextFormat = "sent %p pk (%l)"
*.host2.app[2].messageLength = 20B
*.host2.app[2].sendInterval = 1ms
*.host2.app[2].startTime = 1200us
*.host2.app[2].stopTime = 1500us
*.host2.app[2].display-name = "type2_1"
*.host2.app[2].destPort = 1002
*.host2.app[3].typename = "UdpBasicApp"
*.host2.app[3].destAddresses = "host3"
*.host2.app[3].source.packetNameFormat = "%M-%m-%c"
*.host2.app[3].source.displayStringTextFormat = "sent %p pk (%l)"
*.host2.app[3].messageLength = 20B
*.host2.app[3].sendInterval = 1ms
*.host2.app[3].startTime = 1600us
*.host2.app[3].stopTime = 4300us
*.host2.app[3].display-name = "type2_1"
*.host2.app[3].destPort = 1002
*.host2.app[4].typename = "UdpBasicApp"
*.host2.app[4].destAddresses = "host3"
*.host2.app[4].source.packetNameFormat = "%M-%m-%c"
*.host2.app[4].source.displayStringTextFormat = "sent %p pk (%l)"
*.host2.app[4].messageLength = 20B
*.host2.app[4].sendInterval = 1ms
*.host2.app[4].startTime = 4600us
*.host2.app[4].stopTime = 4900us
*.host2.app[4].display-name = "type2_1"
*.host2.app[4].destPort = 1002
*.host2.app[5].typename = "UdpBasicApp"
*.host2.app[5].destAddresses = "host3"
*.host2.app[5].source.packetNameFormat = "%M-%m-%c"
*.host2.app[5].source.displayStringTextFormat = "sent %p pk (%l)"
*.host2.app[5].messageLength = 20B
*.host2.app[5].sendInterval = 1ms
*.host2.app[5].startTime = 5100us
*.host2.app[5].stopTime = 6000us
*.host2.app[5].display-name = "type2_1"
*.host2.app[5].destPort = 1002
*.host2.app[6].typename = "UdpBasicApp"
*.host2.app[6].destAddresses = "host3"
*.host2.app[6].source.packetNameFormat = "%M-%m-%c"
*.host2.app[6].source.displayStringTextFormat = "sent %p pk (%l)"
*.host2.app[6].messageLength = 20B
*.host2.app[6].sendInterval = 1ms
*.host2.app[6].startTime = 6600us
*.host2.app[6].stopTime = 8500us
*.host2.app[6].display-name = "type2_1"
*.host2.app[6].destPort = 1002
*.host2.app[7].typename = "UdpBasicApp"
*.host2.app[7].destAddresses = "host3"
*.host2.app[7].source.packetNameFormat = "%M-%m-%c"
*.host2.app[7].source.displayStringTextFormat = "sent %p pk (%l)"
*.host2.app[7].messageLength = 20B
*.host2.app[7].sendInterval = 1ms
*.host2.app[7].startTime = 9600us
*.host2.app[7].stopTime = 9900us
*.host2.app[7].display-name = "type2_1"
*.host2.app[7].destPort = 1002
*.host3.numApps = 4
*.host3.app[0].typename = "UdpSinkApp"
*.host3.app[0].io.localPort = 1000
*.host3.app[1].typename = "UdpSinkApp"
*.host3.app[1].io.localPort = 1001
*.host3.app[2].typename = "UdpSinkApp"
*.host3.app[2].io.localPort = 1002
*.host3.app[3].typename = "UdpSinkApp"
*.host3.app[3].io.localPort = 1003
*.host4.numApps = 6
*.host4.app[0].typename = "UdpBasicApp"
*.host4.app[0].destAddresses = "host3"
*.host4.app[0].source.packetNameFormat = "%M-%m-%c"
*.host4.app[0].source.displayStringTextFormat = "sent %p pk (%l)"
*.host4.app[0].messageLength = 21B
*.host4.app[0].sendInterval = 1ms
*.host4.app[0].startTime = 300us
*.host4.app[0].stopTime = 400us
*.host4.app[0].display-name = "type2_0"
*.host4.app[0].destPort = 1001
*.host4.app[1].typename = "UdpBasicApp"
*.host4.app[1].destAddresses = "host3"
*.host4.app[1].source.packetNameFormat = "%M-%m-%c"
*.host4.app[1].source.displayStringTextFormat = "sent %p pk (%l)"
*.host4.app[1].messageLength = 21B
*.host4.app[1].sendInterval = 1ms
*.host4.app[1].startTime = 600us
*.host4.app[1].stopTime = 1900us
*.host4.app[1].display-name = "type2_0"
*.host4.app[1].destPort = 1001
*.host4.app[2].typename = "UdpBasicApp"
*.host4.app[2].destAddresses = "host3"
*.host4.app[2].source.packetNameFormat = "%M-%m-%c"
*.host4.app[2].source.displayStringTextFormat = "sent %p pk (%l)"
*.host4.app[2].messageLength = 21B
*.host4.app[2].sendInterval = 1ms
*.host4.app[2].startTime = 2900us
*.host4.app[2].stopTime = 4400us
*.host4.app[2].display-name = "type2_0"
*.host4.app[2].destPort = 1001
*.host4.app[3].typename = "UdpBasicApp"
*.host4.app[3].destAddresses = "host3"
*.host4.app[3].source.packetNameFormat = "%M-%m-%c"
*.host4.app[3].source.displayStringTextFormat = "sent %p pk (%l)"
*.host4.app[3].messageLength = 21B
*.host4.app[3].sendInterval = 1ms
*.host4.app[3].startTime = 4600us
*.host4.app[3].stopTime = 4800us
*.host4.app[3].display-name = "type2_0"
*.host4.app[3].destPort = 1001
*.host4.app[4].typename = "UdpBasicApp"
*.host4.app[4].destAddresses = "host3"
*.host4.app[4].source.packetNameFormat = "%M-%m-%c"
*.host4.app[4].source.displayStringTextFormat = "sent %p pk (%l)"
*.host4.app[4].messageLength = 21B
*.host4.app[4].sendInterval = 1ms
*.host4.app[4].startTime = 5900us
*.host4.app[4].stopTime = 8400us
*.host4.app[4].display-name = "type2_0"
*.host4.app[4].destPort = 1001
*.host4.app[5].typename = "UdpBasicApp"
*.host4.app[5].destAddresses = "host3"
*.host4.app[5].source.packetNameFormat = "%M-%m-%c"
*.host4.app[5].source.displayStringTextFormat = "sent %p pk (%l)"
*.host4.app[5].messageLength = 21B
*.host4.app[5].sendInterval = 1ms
*.host4.app[5].startTime = 8800us
*.host4.app[5].stopTime = 10000us
*.host4.app[5].display-name = "type2_0"
*.host4.app[5].destPort = 1001
*.streamRedundancyConfigurator.configuration = [
	{
		name: "S1-0",
		packetFilter: "*-type1_0-*",
		source: "host2",
		destination: "host3",
		trees: [[["host2", "switch2", "switch3", "host3"]]]
	},
	{
		name: "S1-1",
		packetFilter: "*-type1_1-*",
		source: "host2",
		destination: "host0",
		trees: [[["host2", "switch2", "switch3", "switch4", "switch0", "host0"]]]
	},
	{
		name: "S2-0",
		packetFilter: "*-type2_0-*",
		source: "host4",
		destination: "host3",
		trees: [[["host4", "switch4", "switch2", "switch3", "host3"]]]
	},
	{
		name: "S2-1",
		packetFilter: "*-type2_1-*",
		source: "host2",
		destination: "host3",
		trees: [[["host2", "switch2", "switch3", "host3"]]]
	},
	{
		name: "S2-2",
		packetFilter: "*-type2_2-*",
		source: "host0",
		destination: "host3",
		trees: [[["host0", "switch0", "switch4", "switch2", "switch3", "host3"]]]
	},
	{
		name: "S2-3",
		packetFilter: "*-type2_3-*",
		source: "host1",
		destination: "host0",
		trees: [[["host1", "switch1", "switch0", "host0"]]]
	}]
	

