[General]
network = TSN_multipath
sim-time-limit = 100ms
*.macForwardingTableConfigurator.typename = ""
*.*.hasStreamRedundancy = true
*.*.bridging.streamRelay.typename = "StreamRelayLayer"
*.*.bridging.streamCoder.typename = "StreamCoderLayer"
*.streamRedundancyConfigurator.typename = "StreamRedundancyConfigurator"
*.host0.eth[0].bitrate = 1000Mbps
*.switch0.eth[0].bitrate = 1000Mbps
*.switch0.eth[1].bitrate = 1200Mbps
*.switch0.eth[2].bitrate = 1500Mbps
*.switch0.eth[3].bitrate = 1300Mbps
*.switch0.eth[4].bitrate = 1200Mbps
*.switch0.eth[5].bitrate = 2300Mbps
*.switch0.eth[6].bitrate = 1300Mbps
*.switch0.eth[7].bitrate = 2000Mbps
*.switch0.eth[8].bitrate = 1700Mbps
*.switch0.eth[9].bitrate = 1500Mbps
*.switch0.eth[10].bitrate = 1500Mbps
*.switch0.eth[11].bitrate = 1600Mbps
*.switch0.eth[12].bitrate = 2200Mbps
*.switch0.eth[13].bitrate = 1700Mbps
*.switch0.eth[14].bitrate = 1500Mbps
*.host1.eth[0].bitrate = 1000Mbps
*.switch1.eth[0].bitrate = 1000Mbps
*.switch1.eth[1].bitrate = 1200Mbps
*.switch1.eth[2].bitrate = 1200Mbps
*.switch1.eth[3].bitrate = 1500Mbps
*.switch1.eth[4].bitrate = 1400Mbps
*.switch1.eth[5].bitrate = 2100Mbps
*.switch1.eth[6].bitrate = 1700Mbps
*.switch1.eth[7].bitrate = 2400Mbps
*.switch1.eth[8].bitrate = 2300Mbps
*.switch1.eth[9].bitrate = 1700Mbps
*.switch1.eth[10].bitrate = 2300Mbps
*.host2.eth[0].bitrate = 1000Mbps
*.switch2.eth[0].bitrate = 1000Mbps
*.switch2.eth[1].bitrate = 2300Mbps
*.switch2.eth[2].bitrate = 1400Mbps
*.switch2.eth[3].bitrate = 2100Mbps
*.switch2.eth[4].bitrate = 1400Mbps
*.switch2.eth[5].bitrate = 1500Mbps
*.switch2.eth[6].bitrate = 1800Mbps
*.switch2.eth[7].bitrate = 2100Mbps
*.switch2.eth[8].bitrate = 1900Mbps
*.switch2.eth[9].bitrate = 1900Mbps
*.switch2.eth[10].bitrate = 2200Mbps
*.switch2.eth[11].bitrate = 2300Mbps
*.switch2.eth[12].bitrate = 1600Mbps
*.switch2.eth[13].bitrate = 1900Mbps
*.switch2.eth[14].bitrate = 1500Mbps
*.switch2.eth[15].bitrate = 1400Mbps
*.switch2.eth[16].bitrate = 2000Mbps
*.switch2.eth[17].bitrate = 1700Mbps
*.switch2.eth[18].bitrate = 2200Mbps
*.switch2.eth[19].bitrate = 1900Mbps
*.switch2.eth[20].bitrate = 1600Mbps
*.switch2.eth[21].bitrate = 2100Mbps
*.switch2.eth[22].bitrate = 2300Mbps
*.switch2.eth[23].bitrate = 2400Mbps
*.host3.eth[0].bitrate = 1000Mbps
*.switch3.eth[0].bitrate = 1000Mbps
*.switch3.eth[1].bitrate = 1500Mbps
*.switch3.eth[2].bitrate = 2100Mbps
*.switch3.eth[3].bitrate = 1300Mbps
*.switch3.eth[4].bitrate = 2200Mbps
*.switch3.eth[5].bitrate = 1300Mbps
*.switch3.eth[6].bitrate = 1900Mbps
*.switch3.eth[7].bitrate = 1300Mbps
*.switch3.eth[8].bitrate = 1700Mbps
*.switch3.eth[9].bitrate = 2000Mbps
*.switch3.eth[10].bitrate = 2100Mbps
*.switch3.eth[11].bitrate = 2200Mbps
*.switch3.eth[12].bitrate = 1900Mbps
*.switch3.eth[13].bitrate = 2400Mbps
*.switch3.eth[14].bitrate = 2000Mbps
*.switch3.eth[15].bitrate = 1700Mbps
*.switch3.eth[16].bitrate = 1900Mbps
*.switch3.eth[17].bitrate = 1800Mbps
*.switch3.eth[18].bitrate = 1500Mbps
*.switch3.eth[19].bitrate = 1300Mbps
*.switch3.eth[20].bitrate = 1400Mbps
*.switch3.eth[21].bitrate = 1400Mbps
*.switch3.eth[22].bitrate = 1500Mbps
*.switch3.eth[23].bitrate = 2000Mbps
*.host4.eth[0].bitrate = 1000Mbps
*.switch4.eth[0].bitrate = 1000Mbps
*.switch4.eth[1].bitrate = 1400Mbps
*.switch4.eth[2].bitrate = 1200Mbps
*.switch4.eth[3].bitrate = 2200Mbps
*.switch4.eth[4].bitrate = 2300Mbps
*.switch4.eth[5].bitrate = 2100Mbps
*.switch4.eth[6].bitrate = 1700Mbps
*.switch4.eth[7].bitrate = 2400Mbps
*.switch4.eth[8].bitrate = 1200Mbps
*.switch4.eth[9].bitrate = 2200Mbps
*.switch4.eth[10].bitrate = 2300Mbps
*.switch4.eth[11].bitrate = 1700Mbps
*.switch4.eth[12].bitrate = 1500Mbps
*.host5.eth[0].bitrate = 1000Mbps
*.switch5.eth[0].bitrate = 1000Mbps
*.switch5.eth[1].bitrate = 1500Mbps
*.switch5.eth[2].bitrate = 1500Mbps
*.switch5.eth[3].bitrate = 1300Mbps
*.switch5.eth[4].bitrate = 2000Mbps
*.switch5.eth[5].bitrate = 1900Mbps
*.switch5.eth[6].bitrate = 1700Mbps
*.switch5.eth[7].bitrate = 1700Mbps
*.switch5.eth[8].bitrate = 1800Mbps
*.switch5.eth[9].bitrate = 1300Mbps
*.switch5.eth[10].bitrate = 1800Mbps
*.switch5.eth[11].bitrate = 2000Mbps
*.switch5.eth[12].bitrate = 1200Mbps
*.switch5.eth[13].bitrate = 2000Mbps
*.switch5.eth[14].bitrate = 1900Mbps
*.switch5.eth[15].bitrate = 1900Mbps
*.switch5.eth[16].bitrate = 2400Mbps
*.switch5.eth[17].bitrate = 1800Mbps
*.switch5.eth[18].bitrate = 2200Mbps
*.host6.eth[0].bitrate = 1000Mbps
*.switch6.eth[0].bitrate = 1000Mbps
*.switch6.eth[1].bitrate = 1800Mbps
*.switch6.eth[2].bitrate = 1900Mbps
*.switch6.eth[3].bitrate = 1700Mbps
*.switch6.eth[4].bitrate = 1600Mbps
*.switch6.eth[5].bitrate = 1800Mbps
*.switch6.eth[6].bitrate = 1500Mbps
*.switch6.eth[7].bitrate = 1400Mbps
*.switch6.eth[8].bitrate = 2300Mbps
*.switch6.eth[9].bitrate = 1900Mbps
*.switch6.eth[10].bitrate = 1700Mbps
*.switch6.eth[11].bitrate = 1400Mbps
*.switch6.eth[12].bitrate = 1500Mbps
*.switch6.eth[13].bitrate = 1900Mbps
*.host7.eth[0].bitrate = 1000Mbps
*.switch7.eth[0].bitrate = 1000Mbps
*.switch7.eth[1].bitrate = 2100Mbps
*.switch7.eth[2].bitrate = 1800Mbps
*.switch7.eth[3].bitrate = 1800Mbps
*.switch7.eth[4].bitrate = 1500Mbps
*.switch7.eth[5].bitrate = 1900Mbps
*.switch7.eth[6].bitrate = 2300Mbps
*.switch7.eth[7].bitrate = 2200Mbps
*.switch7.eth[8].bitrate = 1400Mbps
*.switch7.eth[9].bitrate = 1200Mbps
*.switch7.eth[10].bitrate = 1300Mbps
*.switch7.eth[11].bitrate = 1400Mbps
*.switch7.eth[12].bitrate = 1700Mbps
*.switch7.eth[13].bitrate = 2400Mbps
*.switch7.eth[14].bitrate = 1400Mbps
*.host8.eth[0].bitrate = 1000Mbps
*.switch8.eth[0].bitrate = 1000Mbps
*.switch8.eth[1].bitrate = 1900Mbps
*.switch8.eth[2].bitrate = 1300Mbps
*.switch8.eth[3].bitrate = 2200Mbps
*.switch8.eth[4].bitrate = 1500Mbps
*.switch8.eth[5].bitrate = 2100Mbps
*.switch8.eth[6].bitrate = 2100Mbps
*.switch8.eth[7].bitrate = 1800Mbps
*.switch8.eth[8].bitrate = 2400Mbps
*.switch8.eth[9].bitrate = 2400Mbps
*.switch8.eth[10].bitrate = 1900Mbps
*.switch8.eth[11].bitrate = 1300Mbps
*.switch8.eth[12].bitrate = 2100Mbps
*.switch8.eth[13].bitrate = 1900Mbps
*.switch8.eth[14].bitrate = 1300Mbps
*.switch8.eth[15].bitrate = 2300Mbps
*.switch8.eth[16].bitrate = 1600Mbps
*.switch8.eth[17].bitrate = 1400Mbps
*.switch8.eth[18].bitrate = 2300Mbps
*.switch8.eth[19].bitrate = 2200Mbps
*.switch8.eth[20].bitrate = 1500Mbps
*.switch8.eth[21].bitrate = 1300Mbps
*.switch8.eth[22].bitrate = 2000Mbps
*.switch8.eth[23].bitrate = 2200Mbps
*.switch8.eth[24].bitrate = 1900Mbps
*.switch8.eth[25].bitrate = 1800Mbps
*.switch8.eth[26].bitrate = 1400Mbps
*.switch8.eth[27].bitrate = 2300Mbps
*.host9.eth[0].bitrate = 1000Mbps
*.switch9.eth[0].bitrate = 1000Mbps
*.switch9.eth[1].bitrate = 1300Mbps
*.switch9.eth[2].bitrate = 2100Mbps
*.switch9.eth[3].bitrate = 1600Mbps
*.switch9.eth[4].bitrate = 1200Mbps
*.switch9.eth[5].bitrate = 1700Mbps
*.switch9.eth[6].bitrate = 2000Mbps
*.switch9.eth[7].bitrate = 2300Mbps
*.switch9.eth[8].bitrate = 2200Mbps
*.switch9.eth[9].bitrate = 2000Mbps
*.switch9.eth[10].bitrate = 1300Mbps
*.switch9.eth[11].bitrate = 1900Mbps
*.switch9.eth[12].bitrate = 1900Mbps
*.switch9.eth[13].bitrate = 1400Mbps
*.host10.eth[0].bitrate = 1000Mbps
*.switch10.eth[0].bitrate = 1000Mbps
*.switch10.eth[1].bitrate = 1700Mbps
*.switch10.eth[2].bitrate = 1800Mbps
*.switch10.eth[3].bitrate = 1900Mbps
*.switch10.eth[4].bitrate = 1700Mbps
*.switch10.eth[5].bitrate = 2300Mbps
*.switch10.eth[6].bitrate = 1500Mbps
*.switch10.eth[7].bitrate = 1800Mbps
*.switch10.eth[8].bitrate = 1400Mbps
*.switch10.eth[9].bitrate = 2200Mbps
*.switch10.eth[10].bitrate = 2300Mbps
*.switch10.eth[11].bitrate = 1600Mbps
*.switch10.eth[12].bitrate = 2100Mbps
*.switch10.eth[13].bitrate = 2100Mbps
*.switch10.eth[14].bitrate = 1700Mbps
*.host11.eth[0].bitrate = 1000Mbps
*.switch11.eth[0].bitrate = 1000Mbps
*.switch11.eth[1].bitrate = 1900Mbps
*.switch11.eth[2].bitrate = 1200Mbps
*.switch11.eth[3].bitrate = 1300Mbps
*.switch11.eth[4].bitrate = 2300Mbps
*.switch11.eth[5].bitrate = 2400Mbps
*.switch11.eth[6].bitrate = 1300Mbps
*.switch11.eth[7].bitrate = 1900Mbps
*.switch11.eth[8].bitrate = 1900Mbps
*.switch11.eth[9].bitrate = 2100Mbps
*.switch11.eth[10].bitrate = 1600Mbps
*.switch11.eth[11].bitrate = 2200Mbps
*.switch11.eth[12].bitrate = 1900Mbps
*.switch11.eth[13].bitrate = 1400Mbps
*.host12.eth[0].bitrate = 1000Mbps
*.switch12.eth[0].bitrate = 1000Mbps
*.switch12.eth[1].bitrate = 2200Mbps
*.switch12.eth[2].bitrate = 2000Mbps
*.switch12.eth[3].bitrate = 2200Mbps
*.switch12.eth[4].bitrate = 2000Mbps
*.switch12.eth[5].bitrate = 1500Mbps
*.switch12.eth[6].bitrate = 2300Mbps
*.switch12.eth[7].bitrate = 2100Mbps
*.switch12.eth[8].bitrate = 2200Mbps
*.switch12.eth[9].bitrate = 2400Mbps
*.switch12.eth[10].bitrate = 1400Mbps
*.switch12.eth[11].bitrate = 2200Mbps
*.switch12.eth[12].bitrate = 1500Mbps
*.switch12.eth[13].bitrate = 1400Mbps
*.switch12.eth[14].bitrate = 1800Mbps
*.switch12.eth[15].bitrate = 1900Mbps
*.switch12.eth[16].bitrate = 2100Mbps
*.switch12.eth[17].bitrate = 1500Mbps
*.switch12.eth[18].bitrate = 1300Mbps
*.switch12.eth[19].bitrate = 2400Mbps
*.switch12.eth[20].bitrate = 1300Mbps
*.switch12.eth[21].bitrate = 1200Mbps
*.switch12.eth[22].bitrate = 1200Mbps
*.host13.eth[0].bitrate = 1000Mbps
*.switch13.eth[0].bitrate = 1000Mbps
*.switch13.eth[1].bitrate = 2300Mbps
*.switch13.eth[2].bitrate = 2100Mbps
*.switch13.eth[3].bitrate = 1600Mbps
*.switch13.eth[4].bitrate = 2300Mbps
*.switch13.eth[5].bitrate = 1500Mbps
*.switch13.eth[6].bitrate = 2300Mbps
*.switch13.eth[7].bitrate = 1400Mbps
*.switch13.eth[8].bitrate = 2300Mbps
*.switch13.eth[9].bitrate = 1200Mbps
*.switch13.eth[10].bitrate = 2200Mbps
*.switch13.eth[11].bitrate = 2000Mbps
*.switch13.eth[12].bitrate = 1400Mbps
*.switch13.eth[13].bitrate = 1300Mbps
*.switch13.eth[14].bitrate = 1900Mbps
*.switch13.eth[15].bitrate = 1900Mbps
*.switch13.eth[16].bitrate = 1400Mbps
*.switch13.eth[17].bitrate = 1400Mbps
*.host14.eth[0].bitrate = 1000Mbps
*.switch14.eth[0].bitrate = 1000Mbps
*.switch14.eth[1].bitrate = 1600Mbps
*.switch14.eth[2].bitrate = 2200Mbps
*.switch14.eth[3].bitrate = 1200Mbps
*.switch14.eth[4].bitrate = 1400Mbps
*.switch14.eth[5].bitrate = 1400Mbps
*.switch14.eth[6].bitrate = 1600Mbps
*.switch14.eth[7].bitrate = 1700Mbps
*.switch14.eth[8].bitrate = 1700Mbps
*.switch14.eth[9].bitrate = 1700Mbps
*.switch14.eth[10].bitrate = 2200Mbps
*.switch14.eth[11].bitrate = 1300Mbps
*.switch14.eth[12].bitrate = 1400Mbps
*.switch14.eth[13].bitrate = 1800Mbps
*.switch14.eth[14].bitrate = 2100Mbps
*.switch14.eth[15].bitrate = 1500Mbps
*.host15.eth[0].bitrate = 1000Mbps
*.switch15.eth[0].bitrate = 1000Mbps
*.switch15.eth[1].bitrate = 1900Mbps
*.switch15.eth[2].bitrate = 2300Mbps
*.switch15.eth[3].bitrate = 2000Mbps
*.switch15.eth[4].bitrate = 2300Mbps
*.switch15.eth[5].bitrate = 2200Mbps
*.switch15.eth[6].bitrate = 1900Mbps
*.switch15.eth[7].bitrate = 1900Mbps
*.switch15.eth[8].bitrate = 2100Mbps
*.switch15.eth[9].bitrate = 2000Mbps
*.host16.eth[0].bitrate = 1000Mbps
*.switch16.eth[0].bitrate = 1000Mbps
*.switch16.eth[1].bitrate = 1500Mbps
*.switch16.eth[2].bitrate = 1900Mbps
*.switch16.eth[3].bitrate = 1400Mbps
*.switch16.eth[4].bitrate = 2200Mbps
*.switch16.eth[5].bitrate = 2200Mbps
*.switch16.eth[6].bitrate = 1300Mbps
*.switch16.eth[7].bitrate = 1700Mbps
*.switch16.eth[8].bitrate = 1700Mbps
*.switch16.eth[9].bitrate = 2400Mbps
*.switch16.eth[10].bitrate = 1400Mbps
*.switch16.eth[11].bitrate = 1900Mbps
*.switch16.eth[12].bitrate = 1200Mbps
*.switch16.eth[13].bitrate = 1600Mbps
*.switch16.eth[14].bitrate = 2300Mbps
*.host17.eth[0].bitrate = 1000Mbps
*.switch17.eth[0].bitrate = 1000Mbps
*.switch17.eth[1].bitrate = 1400Mbps
*.switch17.eth[2].bitrate = 2400Mbps
*.switch17.eth[3].bitrate = 1200Mbps
*.switch17.eth[4].bitrate = 2100Mbps
*.switch17.eth[5].bitrate = 1600Mbps
*.switch17.eth[6].bitrate = 2400Mbps
*.switch17.eth[7].bitrate = 2000Mbps
*.switch17.eth[8].bitrate = 1200Mbps
*.switch17.eth[9].bitrate = 1500Mbps
*.switch17.eth[10].bitrate = 2300Mbps
*.switch17.eth[11].bitrate = 1500Mbps
*.switch17.eth[12].bitrate = 1800Mbps
*.host18.eth[0].bitrate = 1000Mbps
*.switch18.eth[0].bitrate = 1000Mbps
*.switch18.eth[1].bitrate = 1300Mbps
*.switch18.eth[2].bitrate = 2000Mbps
*.switch18.eth[3].bitrate = 2000Mbps
*.switch18.eth[4].bitrate = 1900Mbps
*.switch18.eth[5].bitrate = 1500Mbps
*.switch18.eth[6].bitrate = 2000Mbps
*.switch18.eth[7].bitrate = 1300Mbps
*.switch18.eth[8].bitrate = 1400Mbps
*.switch18.eth[9].bitrate = 2000Mbps
*.switch18.eth[10].bitrate = 1800Mbps
*.switch18.eth[11].bitrate = 1500Mbps
*.switch18.eth[12].bitrate = 2300Mbps
*.switch18.eth[13].bitrate = 1500Mbps
*.switch18.eth[14].bitrate = 2200Mbps
*.switch18.eth[15].bitrate = 1900Mbps
*.switch18.eth[16].bitrate = 1400Mbps
*.switch18.eth[17].bitrate = 1400Mbps
*.switch18.eth[18].bitrate = 1200Mbps
*.switch18.eth[19].bitrate = 1400Mbps
*.switch18.eth[20].bitrate = 1400Mbps
*.host19.eth[0].bitrate = 1000Mbps
*.switch19.eth[0].bitrate = 1000Mbps
*.switch19.eth[1].bitrate = 1700Mbps
*.switch19.eth[2].bitrate = 2100Mbps
*.switch19.eth[3].bitrate = 1900Mbps
*.switch19.eth[4].bitrate = 1300Mbps
*.switch19.eth[5].bitrate = 1300Mbps
*.switch19.eth[6].bitrate = 1400Mbps
*.switch19.eth[7].bitrate = 1800Mbps
*.switch19.eth[8].bitrate = 1600Mbps
*.switch19.eth[9].bitrate = 2000Mbps
*.switch19.eth[10].bitrate = 1400Mbps
*.switch19.eth[11].bitrate = 1400Mbps
*.switch19.eth[12].bitrate = 2300Mbps
*.switch19.eth[13].bitrate = 1400Mbps
*.host0.numApps = 16
*.host0.app[0].typename = "UdpSinkApp"
*.host0.app[0].io.localPort = 1000
*.host0.app[1].typename = "UdpSinkApp"
*.host0.app[1].io.localPort = 1001
*.host0.app[2].typename = "UdpSinkApp"
*.host0.app[2].io.localPort = 1002
*.host0.app[3].typename = "UdpBasicApp"
*.host0.app[3].destAddresses = "host4"
*.host0.app[3].source.packetNameFormat = "%M-%m-%c"
*.host0.app[3].source.displayStringTextFormat = "sent %p pk (%l)"
*.host0.app[3].messageLength = 17B
*.host0.app[3].sendInterval = 1ms
*.host0.app[3].startTime = 18ms
*.host0.app[3].stopTime = 47ms
*.host0.app[3].display-name = "type2_7"
*.host0.app[3].destPort = 1000
*.host0.app[4].typename = "UdpBasicApp"
*.host0.app[4].destAddresses = "host4"
*.host0.app[4].source.packetNameFormat = "%M-%m-%c"
*.host0.app[4].source.displayStringTextFormat = "sent %p pk (%l)"
*.host0.app[4].messageLength = 17B
*.host0.app[4].sendInterval = 1ms
*.host0.app[4].startTime = 48ms
*.host0.app[4].stopTime = 60ms
*.host0.app[4].display-name = "type2_7"
*.host0.app[4].destPort = 1000
*.host0.app[5].typename = "UdpBasicApp"
*.host0.app[5].destAddresses = "host4"
*.host0.app[5].source.packetNameFormat = "%M-%m-%c"
*.host0.app[5].source.displayStringTextFormat = "sent %p pk (%l)"
*.host0.app[5].messageLength = 17B
*.host0.app[5].sendInterval = 1ms
*.host0.app[5].startTime = 64ms
*.host0.app[5].stopTime = 66ms
*.host0.app[5].display-name = "type2_7"
*.host0.app[5].destPort = 1000
*.host0.app[6].typename = "UdpBasicApp"
*.host0.app[6].destAddresses = "host4"
*.host0.app[6].source.packetNameFormat = "%M-%m-%c"
*.host0.app[6].source.displayStringTextFormat = "sent %p pk (%l)"
*.host0.app[6].messageLength = 17B
*.host0.app[6].sendInterval = 1ms
*.host0.app[6].startTime = 70ms
*.host0.app[6].stopTime = 75ms
*.host0.app[6].display-name = "type2_7"
*.host0.app[6].destPort = 1000
*.host0.app[7].typename = "UdpBasicApp"
*.host0.app[7].destAddresses = "host4"
*.host0.app[7].source.packetNameFormat = "%M-%m-%c"
*.host0.app[7].source.displayStringTextFormat = "sent %p pk (%l)"
*.host0.app[7].messageLength = 17B
*.host0.app[7].sendInterval = 1ms
*.host0.app[7].startTime = 84ms
*.host0.app[7].stopTime = 100ms
*.host0.app[7].display-name = "type2_7"
*.host0.app[7].destPort = 1000
*.host0.app[8].typename = "UdpBasicApp"
*.host0.app[8].destAddresses = "host17"
*.host0.app[8].source.packetNameFormat = "%M-%m-%c"
*.host0.app[8].source.displayStringTextFormat = "sent %p pk (%l)"
*.host0.app[8].messageLength = 21B
*.host0.app[8].sendInterval = 1ms
*.host0.app[8].startTime = 11ms
*.host0.app[8].stopTime = 16ms
*.host0.app[8].display-name = "type2_12"
*.host0.app[8].destPort = 1001
*.host0.app[9].typename = "UdpBasicApp"
*.host0.app[9].destAddresses = "host17"
*.host0.app[9].source.packetNameFormat = "%M-%m-%c"
*.host0.app[9].source.displayStringTextFormat = "sent %p pk (%l)"
*.host0.app[9].messageLength = 21B
*.host0.app[9].sendInterval = 1ms
*.host0.app[9].startTime = 30ms
*.host0.app[9].stopTime = 35ms
*.host0.app[9].display-name = "type2_12"
*.host0.app[9].destPort = 1001
*.host0.app[10].typename = "UdpBasicApp"
*.host0.app[10].destAddresses = "host17"
*.host0.app[10].source.packetNameFormat = "%M-%m-%c"
*.host0.app[10].source.displayStringTextFormat = "sent %p pk (%l)"
*.host0.app[10].messageLength = 21B
*.host0.app[10].sendInterval = 1ms
*.host0.app[10].startTime = 38ms
*.host0.app[10].stopTime = 44ms
*.host0.app[10].display-name = "type2_12"
*.host0.app[10].destPort = 1001
*.host0.app[11].typename = "UdpBasicApp"
*.host0.app[11].destAddresses = "host17"
*.host0.app[11].source.packetNameFormat = "%M-%m-%c"
*.host0.app[11].source.displayStringTextFormat = "sent %p pk (%l)"
*.host0.app[11].messageLength = 21B
*.host0.app[11].sendInterval = 1ms
*.host0.app[11].startTime = 45ms
*.host0.app[11].stopTime = 48ms
*.host0.app[11].display-name = "type2_12"
*.host0.app[11].destPort = 1001
*.host0.app[12].typename = "UdpBasicApp"
*.host0.app[12].destAddresses = "host17"
*.host0.app[12].source.packetNameFormat = "%M-%m-%c"
*.host0.app[12].source.displayStringTextFormat = "sent %p pk (%l)"
*.host0.app[12].messageLength = 21B
*.host0.app[12].sendInterval = 1ms
*.host0.app[12].startTime = 51ms
*.host0.app[12].stopTime = 59ms
*.host0.app[12].display-name = "type2_12"
*.host0.app[12].destPort = 1001
*.host0.app[13].typename = "UdpBasicApp"
*.host0.app[13].destAddresses = "host17"
*.host0.app[13].source.packetNameFormat = "%M-%m-%c"
*.host0.app[13].source.displayStringTextFormat = "sent %p pk (%l)"
*.host0.app[13].messageLength = 21B
*.host0.app[13].sendInterval = 1ms
*.host0.app[13].startTime = 64ms
*.host0.app[13].stopTime = 81ms
*.host0.app[13].display-name = "type2_12"
*.host0.app[13].destPort = 1001
*.host0.app[14].typename = "UdpBasicApp"
*.host0.app[14].destAddresses = "host17"
*.host0.app[14].source.packetNameFormat = "%M-%m-%c"
*.host0.app[14].source.displayStringTextFormat = "sent %p pk (%l)"
*.host0.app[14].messageLength = 21B
*.host0.app[14].sendInterval = 1ms
*.host0.app[14].startTime = 83ms
*.host0.app[14].stopTime = 100ms
*.host0.app[14].display-name = "type2_12"
*.host0.app[14].destPort = 1001
*.host0.app[15].typename = "UdpSinkApp"
*.host0.app[15].io.localPort = 1003
*.host1.numApps = 4
*.host1.app[0].typename = "UdpSourceApp"
*.host1.app[0].io.destAddress = "host16"
*.host1.app[0].source.packetNameFormat = "%M-%m-%c"
*.host1.app[0].source.displayStringTextFormat = "sent %p pk (%l)"
*.host1.app[0].source.packetLength = 21B
*.host1.app[0].source.productionInterval = 1ms
*.host1.app[0].display-name = "type1_1"
*.host1.app[0].io.destPort = 1000
*.host1.app[1].typename = "UdpSourceApp"
*.host1.app[1].io.destAddress = "host3"
*.host1.app[1].source.packetNameFormat = "%M-%m-%c"
*.host1.app[1].source.displayStringTextFormat = "sent %p pk (%l)"
*.host1.app[1].source.packetLength = 24B
*.host1.app[1].source.productionInterval = 1ms
*.host1.app[1].display-name = "type1_9"
*.host1.app[1].io.destPort = 1000
*.host1.app[2].typename = "UdpSinkApp"
*.host1.app[2].io.localPort = 1000
*.host1.app[3].typename = "UdpSinkApp"
*.host1.app[3].io.localPort = 1001
*.host2.numApps = 9
*.host2.app[0].typename = "UdpSourceApp"
*.host2.app[0].io.destAddress = "host12"
*.host2.app[0].source.packetNameFormat = "%M-%m-%c"
*.host2.app[0].source.displayStringTextFormat = "sent %p pk (%l)"
*.host2.app[0].source.packetLength = 16B
*.host2.app[0].source.productionInterval = 1ms
*.host2.app[0].display-name = "type1_7"
*.host2.app[0].io.destPort = 1002
*.host2.app[1].typename = "UdpSourceApp"
*.host2.app[1].io.destAddress = "host19"
*.host2.app[1].source.packetNameFormat = "%M-%m-%c"
*.host2.app[1].source.displayStringTextFormat = "sent %p pk (%l)"
*.host2.app[1].source.packetLength = 20B
*.host2.app[1].source.productionInterval = 1ms
*.host2.app[1].display-name = "type1_8"
*.host2.app[1].io.destPort = 1000
*.host2.app[2].typename = "UdpBasicApp"
*.host2.app[2].destAddresses = "host9"
*.host2.app[2].source.packetNameFormat = "%M-%m-%c"
*.host2.app[2].source.displayStringTextFormat = "sent %p pk (%l)"
*.host2.app[2].messageLength = 21B
*.host2.app[2].sendInterval = 1ms
*.host2.app[2].startTime = 1ms
*.host2.app[2].stopTime = 16ms
*.host2.app[2].display-name = "type2_1"
*.host2.app[2].destPort = 1001
*.host2.app[3].typename = "UdpBasicApp"
*.host2.app[3].destAddresses = "host9"
*.host2.app[3].source.packetNameFormat = "%M-%m-%c"
*.host2.app[3].source.displayStringTextFormat = "sent %p pk (%l)"
*.host2.app[3].messageLength = 21B
*.host2.app[3].sendInterval = 1ms
*.host2.app[3].startTime = 34ms
*.host2.app[3].stopTime = 37ms
*.host2.app[3].display-name = "type2_1"
*.host2.app[3].destPort = 1001
*.host2.app[4].typename = "UdpBasicApp"
*.host2.app[4].destAddresses = "host9"
*.host2.app[4].source.packetNameFormat = "%M-%m-%c"
*.host2.app[4].source.displayStringTextFormat = "sent %p pk (%l)"
*.host2.app[4].messageLength = 21B
*.host2.app[4].sendInterval = 1ms
*.host2.app[4].startTime = 39ms
*.host2.app[4].stopTime = 42ms
*.host2.app[4].display-name = "type2_1"
*.host2.app[4].destPort = 1001
*.host2.app[5].typename = "UdpBasicApp"
*.host2.app[5].destAddresses = "host9"
*.host2.app[5].source.packetNameFormat = "%M-%m-%c"
*.host2.app[5].source.displayStringTextFormat = "sent %p pk (%l)"
*.host2.app[5].messageLength = 21B
*.host2.app[5].sendInterval = 1ms
*.host2.app[5].startTime = 55ms
*.host2.app[5].stopTime = 65ms
*.host2.app[5].display-name = "type2_1"
*.host2.app[5].destPort = 1001
*.host2.app[6].typename = "UdpBasicApp"
*.host2.app[6].destAddresses = "host9"
*.host2.app[6].source.packetNameFormat = "%M-%m-%c"
*.host2.app[6].source.displayStringTextFormat = "sent %p pk (%l)"
*.host2.app[6].messageLength = 21B
*.host2.app[6].sendInterval = 1ms
*.host2.app[6].startTime = 66ms
*.host2.app[6].stopTime = 67ms
*.host2.app[6].display-name = "type2_1"
*.host2.app[6].destPort = 1001
*.host2.app[7].typename = "UdpBasicApp"
*.host2.app[7].destAddresses = "host9"
*.host2.app[7].source.packetNameFormat = "%M-%m-%c"
*.host2.app[7].source.displayStringTextFormat = "sent %p pk (%l)"
*.host2.app[7].messageLength = 21B
*.host2.app[7].sendInterval = 1ms
*.host2.app[7].startTime = 85ms
*.host2.app[7].stopTime = 100ms
*.host2.app[7].display-name = "type2_1"
*.host2.app[7].destPort = 1001
*.host2.app[8].typename = "UdpSinkApp"
*.host2.app[8].io.localPort = 1000
*.host3.numApps = 12
*.host3.app[0].typename = "UdpSourceApp"
*.host3.app[0].io.destAddress = "host5"
*.host3.app[0].source.packetNameFormat = "%M-%m-%c"
*.host3.app[0].source.displayStringTextFormat = "sent %p pk (%l)"
*.host3.app[0].source.packetLength = 17B
*.host3.app[0].source.productionInterval = 1ms
*.host3.app[0].display-name = "type1_6"
*.host3.app[0].io.destPort = 1000
*.host3.app[1].typename = "UdpSinkApp"
*.host3.app[1].io.localPort = 1000
*.host3.app[2].typename = "UdpBasicApp"
*.host3.app[2].destAddresses = "host7"
*.host3.app[2].source.packetNameFormat = "%M-%m-%c"
*.host3.app[2].source.displayStringTextFormat = "sent %p pk (%l)"
*.host3.app[2].messageLength = 12B
*.host3.app[2].sendInterval = 1ms
*.host3.app[2].startTime = 5ms
*.host3.app[2].stopTime = 22ms
*.host3.app[2].display-name = "type2_10"
*.host3.app[2].destPort = 1002
*.host3.app[3].typename = "UdpBasicApp"
*.host3.app[3].destAddresses = "host7"
*.host3.app[3].source.packetNameFormat = "%M-%m-%c"
*.host3.app[3].source.displayStringTextFormat = "sent %p pk (%l)"
*.host3.app[3].messageLength = 12B
*.host3.app[3].sendInterval = 1ms
*.host3.app[3].startTime = 33ms
*.host3.app[3].stopTime = 54ms
*.host3.app[3].display-name = "type2_10"
*.host3.app[3].destPort = 1002
*.host3.app[4].typename = "UdpBasicApp"
*.host3.app[4].destAddresses = "host7"
*.host3.app[4].source.packetNameFormat = "%M-%m-%c"
*.host3.app[4].source.displayStringTextFormat = "sent %p pk (%l)"
*.host3.app[4].messageLength = 12B
*.host3.app[4].sendInterval = 1ms
*.host3.app[4].startTime = 66ms
*.host3.app[4].stopTime = 81ms
*.host3.app[4].display-name = "type2_10"
*.host3.app[4].destPort = 1002
*.host3.app[5].typename = "UdpBasicApp"
*.host3.app[5].destAddresses = "host7"
*.host3.app[5].source.packetNameFormat = "%M-%m-%c"
*.host3.app[5].source.displayStringTextFormat = "sent %p pk (%l)"
*.host3.app[5].messageLength = 12B
*.host3.app[5].sendInterval = 1ms
*.host3.app[5].startTime = 87ms
*.host3.app[5].stopTime = 100ms
*.host3.app[5].display-name = "type2_10"
*.host3.app[5].destPort = 1002
*.host3.app[6].typename = "UdpSinkApp"
*.host3.app[6].io.localPort = 1001
*.host3.app[7].typename = "UdpBasicApp"
*.host3.app[7].destAddresses = "host4"
*.host3.app[7].source.packetNameFormat = "%M-%m-%c"
*.host3.app[7].source.displayStringTextFormat = "sent %p pk (%l)"
*.host3.app[7].messageLength = 22B
*.host3.app[7].sendInterval = 1ms
*.host3.app[7].startTime = 38ms
*.host3.app[7].stopTime = 41ms
*.host3.app[7].display-name = "type2_22"
*.host3.app[7].destPort = 1001
*.host3.app[8].typename = "UdpBasicApp"
*.host3.app[8].destAddresses = "host4"
*.host3.app[8].source.packetNameFormat = "%M-%m-%c"
*.host3.app[8].source.displayStringTextFormat = "sent %p pk (%l)"
*.host3.app[8].messageLength = 22B
*.host3.app[8].sendInterval = 1ms
*.host3.app[8].startTime = 48ms
*.host3.app[8].stopTime = 54ms
*.host3.app[8].display-name = "type2_22"
*.host3.app[8].destPort = 1001
*.host3.app[9].typename = "UdpBasicApp"
*.host3.app[9].destAddresses = "host4"
*.host3.app[9].source.packetNameFormat = "%M-%m-%c"
*.host3.app[9].source.displayStringTextFormat = "sent %p pk (%l)"
*.host3.app[9].messageLength = 22B
*.host3.app[9].sendInterval = 1ms
*.host3.app[9].startTime = 66ms
*.host3.app[9].stopTime = 79ms
*.host3.app[9].display-name = "type2_22"
*.host3.app[9].destPort = 1001
*.host3.app[10].typename = "UdpBasicApp"
*.host3.app[10].destAddresses = "host4"
*.host3.app[10].source.packetNameFormat = "%M-%m-%c"
*.host3.app[10].source.displayStringTextFormat = "sent %p pk (%l)"
*.host3.app[10].messageLength = 22B
*.host3.app[10].sendInterval = 1ms
*.host3.app[10].startTime = 83ms
*.host3.app[10].stopTime = 88ms
*.host3.app[10].display-name = "type2_22"
*.host3.app[10].destPort = 1001
*.host3.app[11].typename = "UdpBasicApp"
*.host3.app[11].destAddresses = "host4"
*.host3.app[11].source.packetNameFormat = "%M-%m-%c"
*.host3.app[11].source.displayStringTextFormat = "sent %p pk (%l)"
*.host3.app[11].messageLength = 22B
*.host3.app[11].sendInterval = 1ms
*.host3.app[11].startTime = 94ms
*.host3.app[11].stopTime = 100ms
*.host3.app[11].display-name = "type2_22"
*.host3.app[11].destPort = 1001
*.host4.numApps = 21
*.host4.app[0].typename = "UdpSourceApp"
*.host4.app[0].io.destAddress = "host16"
*.host4.app[0].source.packetNameFormat = "%M-%m-%c"
*.host4.app[0].source.displayStringTextFormat = "sent %p pk (%l)"
*.host4.app[0].source.packetLength = 13B
*.host4.app[0].source.productionInterval = 1ms
*.host4.app[0].display-name = "type1_3"
*.host4.app[0].io.destPort = 1001
*.host4.app[1].typename = "UdpBasicApp"
*.host4.app[1].destAddresses = "host19"
*.host4.app[1].source.packetNameFormat = "%M-%m-%c"
*.host4.app[1].source.displayStringTextFormat = "sent %p pk (%l)"
*.host4.app[1].messageLength = 17B
*.host4.app[1].sendInterval = 1ms
*.host4.app[1].startTime = 13ms
*.host4.app[1].stopTime = 25ms
*.host4.app[1].display-name = "type2_4"
*.host4.app[1].destPort = 1001
*.host4.app[2].typename = "UdpBasicApp"
*.host4.app[2].destAddresses = "host19"
*.host4.app[2].source.packetNameFormat = "%M-%m-%c"
*.host4.app[2].source.displayStringTextFormat = "sent %p pk (%l)"
*.host4.app[2].messageLength = 17B
*.host4.app[2].sendInterval = 1ms
*.host4.app[2].startTime = 32ms
*.host4.app[2].stopTime = 38ms
*.host4.app[2].display-name = "type2_4"
*.host4.app[2].destPort = 1001
*.host4.app[3].typename = "UdpBasicApp"
*.host4.app[3].destAddresses = "host19"
*.host4.app[3].source.packetNameFormat = "%M-%m-%c"
*.host4.app[3].source.displayStringTextFormat = "sent %p pk (%l)"
*.host4.app[3].messageLength = 17B
*.host4.app[3].sendInterval = 1ms
*.host4.app[3].startTime = 41ms
*.host4.app[3].stopTime = 47ms
*.host4.app[3].display-name = "type2_4"
*.host4.app[3].destPort = 1001
*.host4.app[4].typename = "UdpBasicApp"
*.host4.app[4].destAddresses = "host19"
*.host4.app[4].source.packetNameFormat = "%M-%m-%c"
*.host4.app[4].source.displayStringTextFormat = "sent %p pk (%l)"
*.host4.app[4].messageLength = 17B
*.host4.app[4].sendInterval = 1ms
*.host4.app[4].startTime = 60ms
*.host4.app[4].stopTime = 74ms
*.host4.app[4].display-name = "type2_4"
*.host4.app[4].destPort = 1001
*.host4.app[5].typename = "UdpBasicApp"
*.host4.app[5].destAddresses = "host19"
*.host4.app[5].source.packetNameFormat = "%M-%m-%c"
*.host4.app[5].source.displayStringTextFormat = "sent %p pk (%l)"
*.host4.app[5].messageLength = 17B
*.host4.app[5].sendInterval = 1ms
*.host4.app[5].startTime = 79ms
*.host4.app[5].stopTime = 82ms
*.host4.app[5].display-name = "type2_4"
*.host4.app[5].destPort = 1001
*.host4.app[6].typename = "UdpBasicApp"
*.host4.app[6].destAddresses = "host19"
*.host4.app[6].source.packetNameFormat = "%M-%m-%c"
*.host4.app[6].source.displayStringTextFormat = "sent %p pk (%l)"
*.host4.app[6].messageLength = 17B
*.host4.app[6].sendInterval = 1ms
*.host4.app[6].startTime = 83ms
*.host4.app[6].stopTime = 100ms
*.host4.app[6].display-name = "type2_4"
*.host4.app[6].destPort = 1001
*.host4.app[7].typename = "UdpSinkApp"
*.host4.app[7].io.localPort = 1000
*.host4.app[8].typename = "UdpBasicApp"
*.host4.app[8].destAddresses = "host3"
*.host4.app[8].source.packetNameFormat = "%M-%m-%c"
*.host4.app[8].source.displayStringTextFormat = "sent %p pk (%l)"
*.host4.app[8].messageLength = 21B
*.host4.app[8].sendInterval = 1ms