[General]
network = TSN_multipath
sim-time-limit = 100ms
*.macForwardingTableConfigurator.typename = ""
*.*.hasStreamRedundancy = true
*.*.bridging.streamRelay.typename = "StreamRelayLayer"
*.*.bridging.streamCoder.typename = "StreamCoderLayer"
*.streamRedundancyConfigurator.typename = "StreamRedundancyConfigurator"
*.host0.eth[0].bitrate = 1000Mbps
*.switch0.eth[0].bitrate = 1000Mbps
*.switch0.eth[1].bitrate = 1900Mbps
*.switch0.eth[2].bitrate = 1200Mbps
*.switch0.eth[3].bitrate = 2000Mbps
*.switch0.eth[4].bitrate = 1200Mbps
*.switch0.eth[5].bitrate = 1700Mbps
*.switch0.eth[6].bitrate = 1400Mbps
*.switch0.eth[7].bitrate = 2000Mbps
*.switch0.eth[8].bitrate = 1400Mbps
*.switch0.eth[9].bitrate = 1300Mbps
*.switch0.eth[10].bitrate = 1300Mbps
*.switch0.eth[11].bitrate = 1500Mbps
*.switch0.eth[12].bitrate = 1300Mbps
*.host1.eth[0].bitrate = 1000Mbps
*.switch1.eth[0].bitrate = 1000Mbps
*.switch1.eth[1].bitrate = 1900Mbps
*.switch1.eth[2].bitrate = 2000Mbps
*.switch1.eth[3].bitrate = 1200Mbps
*.switch1.eth[4].bitrate = 1500Mbps
*.switch1.eth[5].bitrate = 2300Mbps
*.switch1.eth[6].bitrate = 1900Mbps
*.switch1.eth[7].bitrate = 1300Mbps
*.switch1.eth[8].bitrate = 2100Mbps
*.switch1.eth[9].bitrate = 2000Mbps
*.switch1.eth[10].bitrate = 2100Mbps
*.switch1.eth[11].bitrate = 2000Mbps
*.switch1.eth[12].bitrate = 2300Mbps
*.switch1.eth[13].bitrate = 1700Mbps
*.switch1.eth[14].bitrate = 2200Mbps
*.switch1.eth[15].bitrate = 1400Mbps
*.switch1.eth[16].bitrate = 1800Mbps
*.host2.eth[0].bitrate = 1000Mbps
*.switch2.eth[0].bitrate = 1000Mbps
*.switch2.eth[1].bitrate = 1200Mbps
*.switch2.eth[2].bitrate = 2100Mbps
*.switch2.eth[3].bitrate = 1900Mbps
*.switch2.eth[4].bitrate = 1700Mbps
*.switch2.eth[5].bitrate = 2200Mbps
*.switch2.eth[6].bitrate = 2100Mbps
*.switch2.eth[7].bitrate = 1800Mbps
*.switch2.eth[8].bitrate = 1600Mbps
*.switch2.eth[9].bitrate = 1200Mbps
*.switch2.eth[10].bitrate = 1600Mbps
*.switch2.eth[11].bitrate = 2200Mbps
*.host3.eth[0].bitrate = 1000Mbps
*.switch3.eth[0].bitrate = 1000Mbps
*.switch3.eth[1].bitrate = 2000Mbps
*.switch3.eth[2].bitrate = 1700Mbps
*.switch3.eth[3].bitrate = 1800Mbps
*.switch3.eth[4].bitrate = 1900Mbps
*.switch3.eth[5].bitrate = 2200Mbps
*.switch3.eth[6].bitrate = 1700Mbps
*.switch3.eth[7].bitrate = 1200Mbps
*.switch3.eth[8].bitrate = 2000Mbps
*.switch3.eth[9].bitrate = 2100Mbps
*.switch3.eth[10].bitrate = 1900Mbps
*.switch3.eth[11].bitrate = 1700Mbps
*.switch3.eth[12].bitrate = 1600Mbps
*.host4.eth[0].bitrate = 1000Mbps
*.switch4.eth[0].bitrate = 1000Mbps
*.switch4.eth[1].bitrate = 1200Mbps
*.switch4.eth[2].bitrate = 1700Mbps
*.switch4.eth[3].bitrate = 1400Mbps
*.switch4.eth[4].bitrate = 2000Mbps
*.switch4.eth[5].bitrate = 2100Mbps
*.switch4.eth[6].bitrate = 1200Mbps
*.switch4.eth[7].bitrate = 2400Mbps
*.switch4.eth[8].bitrate = 2100Mbps
*.switch4.eth[9].bitrate = 2100Mbps
*.switch4.eth[10].bitrate = 1900Mbps
*.switch4.eth[11].bitrate = 1200Mbps
*.switch4.eth[12].bitrate = 1600Mbps
*.switch4.eth[13].bitrate = 1900Mbps
*.switch4.eth[14].bitrate = 1900Mbps
*.switch4.eth[15].bitrate = 2200Mbps
*.switch4.eth[16].bitrate = 1800Mbps
*.host5.eth[0].bitrate = 1000Mbps
*.switch5.eth[0].bitrate = 1000Mbps
*.switch5.eth[1].bitrate = 1200Mbps
*.switch5.eth[2].bitrate = 1900Mbps
*.switch5.eth[3].bitrate = 1800Mbps
*.switch5.eth[4].bitrate = 2000Mbps
*.switch5.eth[5].bitrate = 1200Mbps
*.switch5.eth[6].bitrate = 2000Mbps
*.switch5.eth[7].bitrate = 2300Mbps
*.switch5.eth[8].bitrate = 2100Mbps
*.switch5.eth[9].bitrate = 1200Mbps
*.switch5.eth[10].bitrate = 1300Mbps
*.switch5.eth[11].bitrate = 1700Mbps
*.host6.eth[0].bitrate = 1000Mbps
*.switch6.eth[0].bitrate = 1000Mbps
*.switch6.eth[1].bitrate = 1500Mbps
*.switch6.eth[2].bitrate = 1900Mbps
*.switch6.eth[3].bitrate = 2300Mbps
*.switch6.eth[4].bitrate = 1800Mbps
*.switch6.eth[5].bitrate = 2000Mbps
*.switch6.eth[6].bitrate = 1400Mbps
*.switch6.eth[7].bitrate = 1500Mbps
*.switch6.eth[8].bitrate = 2000Mbps
*.switch6.eth[9].bitrate = 1300Mbps
*.switch6.eth[10].bitrate = 1300Mbps
*.switch6.eth[11].bitrate = 2100Mbps
*.switch6.eth[12].bitrate = 2200Mbps
*.switch6.eth[13].bitrate = 2000Mbps
*.host7.eth[0].bitrate = 1000Mbps
*.switch7.eth[0].bitrate = 1000Mbps
*.switch7.eth[1].bitrate = 1700Mbps
*.switch7.eth[2].bitrate = 2400Mbps
*.switch7.eth[3].bitrate = 1700Mbps
*.switch7.eth[4].bitrate = 1600Mbps
*.switch7.eth[5].bitrate = 2000Mbps
*.switch7.eth[6].bitrate = 1300Mbps
*.switch7.eth[7].bitrate = 1800Mbps
*.switch7.eth[8].bitrate = 2400Mbps
*.switch7.eth[9].bitrate = 1400Mbps
*.switch7.eth[10].bitrate = 1200Mbps
*.switch7.eth[11].bitrate = 1900Mbps
*.switch7.eth[12].bitrate = 1900Mbps
*.host8.eth[0].bitrate = 1000Mbps
*.switch8.eth[0].bitrate = 1000Mbps
*.switch8.eth[1].bitrate = 1700Mbps
*.switch8.eth[2].bitrate = 2300Mbps
*.switch8.eth[3].bitrate = 2100Mbps
*.switch8.eth[4].bitrate = 1300Mbps
*.switch8.eth[5].bitrate = 2200Mbps
*.switch8.eth[6].bitrate = 1900Mbps
*.switch8.eth[7].bitrate = 2300Mbps
*.switch8.eth[8].bitrate = 1300Mbps
*.switch8.eth[9].bitrate = 2100Mbps
*.switch8.eth[10].bitrate = 2400Mbps
*.switch8.eth[11].bitrate = 2400Mbps
*.switch8.eth[12].bitrate = 2400Mbps
*.switch8.eth[13].bitrate = 1200Mbps
*.host9.eth[0].bitrate = 1000Mbps
*.switch9.eth[0].bitrate = 1000Mbps
*.switch9.eth[1].bitrate = 1900Mbps
*.switch9.eth[2].bitrate = 1300Mbps
*.switch9.eth[3].bitrate = 2100Mbps
*.switch9.eth[4].bitrate = 1300Mbps
*.switch9.eth[5].bitrate = 1400Mbps
*.switch9.eth[6].bitrate = 1800Mbps
*.switch9.eth[7].bitrate = 2100Mbps
*.switch9.eth[8].bitrate = 1900Mbps
*.switch9.eth[9].bitrate = 2100Mbps
*.switch9.eth[10].bitrate = 1300Mbps
*.switch9.eth[11].bitrate = 1200Mbps
*.switch9.eth[12].bitrate = 2400Mbps
*.switch9.eth[13].bitrate = 1900Mbps
*.switch9.eth[14].bitrate = 2200Mbps
*.switch9.eth[15].bitrate = 1500Mbps
*.switch9.eth[16].bitrate = 2100Mbps
*.switch9.eth[17].bitrate = 1500Mbps
*.switch9.eth[18].bitrate = 1600Mbps
*.host10.eth[0].bitrate = 1000Mbps
*.switch10.eth[0].bitrate = 1000Mbps
*.switch10.eth[1].bitrate = 1300Mbps
*.switch10.eth[2].bitrate = 1800Mbps
*.switch10.eth[3].bitrate = 1800Mbps
*.switch10.eth[4].bitrate = 2400Mbps
*.switch10.eth[5].bitrate = 1900Mbps
*.switch10.eth[6].bitrate = 1900Mbps
*.switch10.eth[7].bitrate = 1200Mbps
*.switch10.eth[8].bitrate = 2000Mbps
*.switch10.eth[9].bitrate = 1800Mbps
*.switch10.eth[10].bitrate = 1200Mbps
*.switch10.eth[11].bitrate = 1400Mbps
*.switch10.eth[12].bitrate = 2200Mbps
*.host11.eth[0].bitrate = 1000Mbps
*.switch11.eth[0].bitrate = 1000Mbps
*.switch11.eth[1].bitrate = 2100Mbps
*.switch11.eth[2].bitrate = 2200Mbps
*.switch11.eth[3].bitrate = 2100Mbps
*.switch11.eth[4].bitrate = 2000Mbps
*.switch11.eth[5].bitrate = 2000Mbps
*.switch11.eth[6].bitrate = 2400Mbps
*.switch11.eth[7].bitrate = 2200Mbps
*.switch11.eth[8].bitrate = 1500Mbps
*.switch11.eth[9].bitrate = 1800Mbps
*.switch11.eth[10].bitrate = 1600Mbps
*.switch11.eth[11].bitrate = 1700Mbps
*.switch11.eth[12].bitrate = 2200Mbps
*.switch11.eth[13].bitrate = 1300Mbps
*.switch11.eth[14].bitrate = 2100Mbps
*.switch11.eth[15].bitrate = 1200Mbps
*.switch11.eth[16].bitrate = 1500Mbps
*.switch11.eth[17].bitrate = 1800Mbps
*.switch11.eth[18].bitrate = 1800Mbps
*.switch11.eth[19].bitrate = 1700Mbps
*.switch11.eth[20].bitrate = 1200Mbps
*.switch11.eth[21].bitrate = 2200Mbps
*.host12.eth[0].bitrate = 1000Mbps
*.switch12.eth[0].bitrate = 1000Mbps
*.switch12.eth[1].bitrate = 1400Mbps
*.switch12.eth[2].bitrate = 2400Mbps
*.switch12.eth[3].bitrate = 1500Mbps
*.switch12.eth[4].bitrate = 1200Mbps
*.switch12.eth[5].bitrate = 1900Mbps
*.switch12.eth[6].bitrate = 1200Mbps
*.switch12.eth[7].bitrate = 2000Mbps
*.switch12.eth[8].bitrate = 1400Mbps
*.switch12.eth[9].bitrate = 1300Mbps
*.switch12.eth[10].bitrate = 1600Mbps
*.host13.eth[0].bitrate = 1000Mbps
*.switch13.eth[0].bitrate = 1000Mbps
*.switch13.eth[1].bitrate = 1400Mbps
*.switch13.eth[2].bitrate = 2000Mbps
*.switch13.eth[3].bitrate = 2200Mbps
*.switch13.eth[4].bitrate = 1700Mbps
*.switch13.eth[5].bitrate = 1900Mbps
*.switch13.eth[6].bitrate = 1500Mbps
*.switch13.eth[7].bitrate = 1400Mbps
*.switch13.eth[8].bitrate = 2100Mbps
*.switch13.eth[9].bitrate = 1800Mbps
*.switch13.eth[10].bitrate = 2000Mbps
*.switch13.eth[11].bitrate = 1300Mbps
*.switch13.eth[12].bitrate = 1600Mbps
*.switch13.eth[13].bitrate = 1800Mbps
*.switch13.eth[14].bitrate = 1700Mbps
*.switch13.eth[15].bitrate = 2200Mbps
*.switch13.eth[16].bitrate = 1900Mbps
*.switch13.eth[17].bitrate = 1600Mbps
*.switch13.eth[18].bitrate = 1400Mbps
*.switch13.eth[19].bitrate = 1200Mbps
*.switch13.eth[20].bitrate = 1300Mbps
*.host14.eth[0].bitrate = 1000Mbps
*.switch14.eth[0].bitrate = 1000Mbps
*.switch14.eth[1].bitrate = 2000Mbps
*.switch14.eth[2].bitrate = 1700Mbps
*.switch14.eth[3].bitrate = 1400Mbps
*.switch14.eth[4].bitrate = 2200Mbps
*.switch14.eth[5].bitrate = 1600Mbps
*.switch14.eth[6].bitrate = 2000Mbps
*.switch14.eth[7].bitrate = 2200Mbps
*.switch14.eth[8].bitrate = 2200Mbps
*.switch14.eth[9].bitrate = 1600Mbps
*.host0.numApps = 4
*.host0.app[0].typename = "UdpSinkApp"
*.host0.app[0].io.localPort = 1000
*.host0.app[1].typename = "UdpBasicApp"
*.host0.app[1].destAddresses = "host13"
*.host0.app[1].source.packetNameFormat = "%M-%m-%c"
*.host0.app[1].source.displayStringTextFormat = "sent %p pk (%l)"
*.host0.app[1].messageLength = 18B
*.host0.app[1].sendInterval = 1ms
*.host0.app[1].startTime = 17ms
*.host0.app[1].stopTime = 38ms
*.host0.app[1].display-name = "type2_18"
*.host0.app[1].destPort = 1002
*.host0.app[2].typename = "UdpBasicApp"
*.host0.app[2].destAddresses = "host13"
*.host0.app[2].source.packetNameFormat = "%M-%m-%c"
*.host0.app[2].source.displayStringTextFormat = "sent %p pk (%l)"
*.host0.app[2].messageLength = 18B
*.host0.app[2].sendInterval = 1ms
*.host0.app[2].startTime = 45ms
*.host0.app[2].stopTime = 74ms
*.host0.app[2].display-name = "type2_18"
*.host0.app[2].destPort = 1002
*.host0.app[3].typename = "UdpBasicApp"
*.host0.app[3].destAddresses = "host13"
*.host0.app[3].source.packetNameFormat = "%M-%m-%c"
*.host0.app[3].source.displayStringTextFormat = "sent %p pk (%l)"
*.host0.app[3].messageLength = 18B
*.host0.app[3].sendInterval = 1ms
*.host0.app[3].startTime = 78ms
*.host0.app[3].stopTime = 96ms
*.host0.app[3].display-name = "type2_18"
*.host0.app[3].destPort = 1002
*.host1.numApps = 5
*.host1.app[0].typename = "UdpBasicApp"
*.host1.app[0].destAddresses = "host2"
*.host1.app[0].source.packetNameFormat = "%M-%m-%c"
*.host1.app[0].source.displayStringTextFormat = "sent %p pk (%l)"
*.host1.app[0].messageLength = 24B
*.host1.app[0].sendInterval = 1ms
*.host1.app[0].startTime = 3ms
*.host1.app[0].stopTime = 11ms
*.host1.app[0].display-name = "type2_13"
*.host1.app[0].destPort = 1002
*.host1.app[1].typename = "UdpBasicApp"
*.host1.app[1].destAddresses = "host2"
*.host1.app[1].source.packetNameFormat = "%M-%m-%c"
*.host1.app[1].source.displayStringTextFormat = "sent %p pk (%l)"
*.host1.app[1].messageLength = 24B
*.host1.app[1].sendInterval = 1ms
*.host1.app[1].startTime = 43ms
*.host1.app[1].stopTime = 58ms
*.host1.app[1].display-name = "type2_13"
*.host1.app[1].destPort = 1002
*.host1.app[2].typename = "UdpBasicApp"
*.host1.app[2].destAddresses = "host2"
*.host1.app[2].source.packetNameFormat = "%M-%m-%c"
*.host1.app[2].source.displayStringTextFormat = "sent %p pk (%l)"
*.host1.app[2].messageLength = 24B
*.host1.app[2].sendInterval = 1ms
*.host1.app[2].startTime = 70ms
*.host1.app[2].stopTime = 77ms
*.host1.app[2].display-name = "type2_13"
*.host1.app[2].destPort = 1002
*.host1.app[3].typename = "UdpBasicApp"
*.host1.app[3].destAddresses = "host2"
*.host1.app[3].source.packetNameFormat = "%M-%m-%c"
*.host1.app[3].source.displayStringTextFormat = "sent %p pk (%l)"
*.host1.app[3].messageLength = 24B
*.host1.app[3].sendInterval = 1ms
*.host1.app[3].startTime = 81ms
*.host1.app[3].stopTime = 87ms
*.host1.app[3].display-name = "type2_13"
*.host1.app[3].destPort = 1002
*.host1.app[4].typename = "UdpBasicApp"
*.host1.app[4].destAddresses = "host2"
*.host1.app[4].source.packetNameFormat = "%M-%m-%c"
*.host1.app[4].source.displayStringTextFormat = "sent %p pk (%l)"
*.host1.app[4].messageLength = 24B
*.host1.app[4].sendInterval = 1ms
*.host1.app[4].startTime = 92ms
*.host1.app[4].stopTime = 100ms
*.host1.app[4].display-name = "type2_13"
*.host1.app[4].destPort = 1002
*.host2.numApps = 18
*.host2.app[0].typename = "UdpSinkApp"
*.host2.app[0].io.localPort = 1000
*.host2.app[1].typename = "UdpSourceApp"
*.host2.app[1].io.destAddress = "host8"
*.host2.app[1].source.packetNameFormat = "%M-%m-%c"
*.host2.app[1].source.displayStringTextFormat = "sent %p pk (%l)"
*.host2.app[1].source.packetLength = 24B
*.host2.app[1].source.productionInterval = 1ms
*.host2.app[1].display-name = "type1_8"
*.host2.app[1].io.destPort = 1000
*.host2.app[2].typename = "UdpBasicApp"
*.host2.app[2].destAddresses = "host12"
*.host2.app[2].source.packetNameFormat = "%M-%m-%c"
*.host2.app[2].source.displayStringTextFormat = "sent %p pk (%l)"
*.host2.app[2].messageLength = 15B
*.host2.app[2].sendInterval = 1ms
*.host2.app[2].startTime = 1ms
*.host2.app[2].stopTime = 3ms
*.host2.app[2].display-name = "type2_1"
*.host2.app[2].destPort = 1001
*.host2.app[3].typename = "UdpBasicApp"
*.host2.app[3].destAddresses = "host12"
*.host2.app[3].source.packetNameFormat = "%M-%m-%c"
*.host2.app[3].source.displayStringTextFormat = "sent %p pk (%l)"
*.host2.app[3].messageLength = 15B
*.host2.app[3].sendInterval = 1ms
*.host2.app[3].startTime = 15ms
*.host2.app[3].stopTime = 25ms
*.host2.app[3].display-name = "type2_1"
*.host2.app[3].destPort = 1001
*.host2.app[4].typename = "UdpBasicApp"
*.host2.app[4].destAddresses = "host12"
*.host2.app[4].source.packetNameFormat = "%M-%m-%c"
*.host2.app[4].source.displayStringTextFormat = "sent %p pk (%l)"
*.host2.app[4].messageLength = 15B
*.host2.app[4].sendInterval = 1ms
*.host2.app[4].startTime = 40ms
*.host2.app[4].stopTime = 45ms
*.host2.app[4].display-name = "type2_1"
*.host2.app[4].destPort = 1001
*.host2.app[5].typename = "UdpBasicApp"
*.host2.app[5].destAddresses = "host12"
*.host2.app[5].source.packetNameFormat = "%M-%m-%c"
*.host2.app[5].source.displayStringTextFormat = "sent %p pk (%l)"
*.host2.app[5].messageLength = 15B
*.host2.app[5].sendInterval = 1ms
*.host2.app[5].startTime = 51ms
*.host2.app[5].stopTime = 52ms
*.host2.app[5].display-name = "type2_1"
*.host2.app[5].destPort = 1001
*.host2.app[6].typename = "UdpBasicApp"
*.host2.app[6].destAddresses = "host12"
*.host2.app[6].source.packetNameFormat = "%M-%m-%c"
*.host2.app[6].source.displayStringTextFormat = "sent %p pk (%l)"
*.host2.app[6].messageLength = 15B
*.host2.app[6].sendInterval = 1ms
*.host2.app[6].startTime = 58ms
*.host2.app[6].stopTime = 71ms
*.host2.app[6].display-name = "type2_1"
*.host2.app[6].destPort = 1001
*.host2.app[7].typename = "UdpBasicApp"
*.host2.app[7].destAddresses = "host12"
*.host2.app[7].source.packetNameFormat = "%M-%m-%c"
*.host2.app[7].source.displayStringTextFormat = "sent %p pk (%l)"
*.host2.app[7].messageLength = 15B
*.host2.app[7].sendInterval = 1ms
*.host2.app[7].startTime = 78ms
*.host2.app[7].stopTime = 86ms
*.host2.app[7].display-name = "type2_1"
*.host2.app[7].destPort = 1001
*.host2.app[8].typename = "UdpBasicApp"
*.host2.app[8].destAddresses = "host12"
*.host2.app[8].source.packetNameFormat = "%M-%m-%c"
*.host2.app[8].source.displayStringTextFormat = "sent %p pk (%l)"
*.host2.app[8].messageLength = 15B
*.host2.app[8].sendInterval = 1ms
*.host2.app[8].startTime = 88ms
*.host2.app[8].stopTime = 98ms
*.host2.app[8].display-name = "type2_1"
*.host2.app[8].destPort = 1001
*.host2.app[9].typename = "UdpBasicApp"
*.host2.app[9].destAddresses = "host13"
*.host2.app[9].source.packetNameFormat = "%M-%m-%c"
*.host2.app[9].source.displayStringTextFormat = "sent %p pk (%l)"
*.host2.app[9].messageLength = 14B
*.host2.app[9].sendInterval = 1ms
*.host2.app[9].startTime = 13ms
*.host2.app[9].stopTime = 20ms
*.host2.app[9].display-name = "type2_3"
*.host2.app[9].destPort = 1001
*.host2.app[10].typename = "UdpBasicApp"
*.host2.app[10].destAddresses = "host13"
*.host2.app[10].source.packetNameFormat = "%M-%m-%c"
*.host2.app[10].source.displayStringTextFormat = "sent %p pk (%l)"
*.host2.app[10].messageLength = 14B
*.host2.app[10].sendInterval = 1ms
*.host2.app[10].startTime = 26ms
*.host2.app[10].stopTime = 30ms
*.host2.app[10].display-name = "type2_3"
*.host2.app[10].destPort = 1001
*.host2.app[11].typename = "UdpBasicApp"
*.host2.app[11].destAddresses = "host13"
*.host2.app[11].source.packetNameFormat = "%M-%m-%c"
*.host2.app[11].source.displayStringTextFormat = "sent %p pk (%l)"
*.host2.app[11].messageLength = 14B
*.host2.app[11].sendInterval = 1ms
*.host2.app[11].startTime = 33ms
*.host2.app[11].stopTime = 40ms
*.host2.app[11].display-name = "type2_3"
*.host2.app[11].destPort = 1001
*.host2.app[12].typename = "UdpBasicApp"
*.host2.app[12].destAddresses = "host13"
*.host2.app[12].source.packetNameFormat = "%M-%m-%c"
*.host2.app[12].source.displayStringTextFormat = "sent %p pk (%l)"
*.host2.app[12].messageLength = 14B
*.host2.app[12].sendInterval = 1ms
*.host2.app[12].startTime = 43ms
*.host2.app[12].stopTime = 53ms
*.host2.app[12].display-name = "type2_3"
*.host2.app[12].destPort = 1001
*.host2.app[13].typename = "UdpBasicApp"
*.host2.app[13].destAddresses = "host13"
*.host2.app[13].source.packetNameFormat = "%M-%m-%c"
*.host2.app[13].source.displayStringTextFormat = "sent %p pk (%l)"
*.host2.app[13].messageLength = 14B
*.host2.app[13].sendInterval = 1ms
*.host2.app[13].startTime = 60ms
*.host2.app[13].stopTime = 73ms
*.host2.app[13].display-name = "type2_3"
*.host2.app[13].destPort = 1001
*.host2.app[14].typename = "UdpBasicApp"
*.host2.app[14].destAddresses = "host13"
*.host2.app[14].source.packetNameFormat = "%M-%m-%c"
*.host2.app[14].source.displayStringTextFormat = "sent %p pk (%l)"
*.host2.app[14].messageLength = 14B
*.host2.app[14].sendInterval = 1ms
*.host2.app[14].startTime = 79ms
*.host2.app[14].stopTime = 91ms
*.host2.app[14].display-name = "type2_3"
*.host2.app[14].destPort = 1001
*.host2.app[15].typename = "UdpBasicApp"
*.host2.app[15].destAddresses = "host13"
*.host2.app[15].source.packetNameFormat = "%M-%m-%c"
*.host2.app[15].source.displayStringTextFormat = "sent %p pk (%l)"
*.host2.app[15].messageLength = 14B
*.host2.app[15].sendInterval = 1ms
*.host2.app[15].startTime = 96ms
*.host2.app[15].stopTime = 98ms
*.host2.app[15].display-name = "type2_3"
*.host2.app[15].destPort = 1001
*.host2.app[16].typename = "UdpSinkApp"
*.host2.app[16].io.localPort = 1001
*.host2.app[17].typename = "UdpSinkApp"
*.host2.app[17].io.localPort = 1002
*.host3.numApps = 16
*.host3.app[0].typename = "UdpSourceApp"
*.host3.app[0].io.destAddress = "host12"
*.host3.app[0].source.packetNameFormat = "%M-%m-%c"
*.host3.app[0].source.displayStringTextFormat = "sent %p pk (%l)"
*.host3.app[0].source.packetLength = 13B
*.host3.app[0].source.productionInterval = 1ms
*.host3.app[0].display-name = "type1_3"
*.host3.app[0].io.destPort = 1000
*.host3.app[1].typename = "UdpSourceApp"
*.host3.app[1].io.destAddress = "host10"
*.host3.app[1].source.packetNameFormat = "%M-%m-%c"
*.host3.app[1].source.displayStringTextFormat = "sent %p pk (%l)"
*.host3.app[1].source.packetLength = 24B
*.host3.app[1].source.productionInterval = 1ms
*.host3.app[1].display-name = "type1_6"
*.host3.app[1].io.destPort = 1000
*.host3.app[2].typename = "UdpBasicApp"
*.host3.app[2].destAddresses = "host10"
*.host3.app[2].source.packetNameFormat = "%M-%m-%c"
*.host3.app[2].source.displayStringTextFormat = "sent %p pk (%l)"
*.host3.app[2].messageLength = 14B
*.host3.app[2].sendInterval = 1ms
*.host3.app[2].startTime = 11ms
*.host3.app[2].stopTime = 21ms
*.host3.app[2].display-name = "type2_4"
*.host3.app[2].destPort = 1001
*.host3.app[3].typename = "UdpBasicApp"
*.host3.app[3].destAddresses = "host10"
*.host3.app[3].source.packetNameFormat = "%M-%m-%c"
*.host3.app[3].source.displayStringTextFormat = "sent %p pk (%l)"
*.host3.app[3].messageLength = 14B
*.host3.app[3].sendInterval = 1ms
*.host3.app[3].startTime = 36ms
*.host3.app[3].stopTime = 37ms
*.host3.app[3].display-name = "type2_4"
*.host3.app[3].destPort = 1001
*.host3.app[4].typename = "UdpBasicApp"
*.host3.app[4].destAddresses = "host10"
*.host3.app[4].source.packetNameFormat = "%M-%m-%c"
*.host3.app[4].source.displayStringTextFormat = "sent %p pk (%l)"
*.host3.app[4].messageLength = 14B
*.host3.app[4].sendInterval = 1ms
*.host3.app[4].startTime = 63ms
*.host3.app[4].stopTime = 68ms
*.host3.app[4].display-name = "type2_4"
*.host3.app[4].destPort = 1001
*.host3.app[5].typename = "UdpBasicApp"
*.host3.app[5].destAddresses = "host10"
*.host3.app[5].source.packetNameFormat = "%M-%m-%c"
*.host3.app[5].source.displayStringTextFormat = "sent %p pk (%l)"
*.host3.app[5].messageLength = 14B
*.host3.app[5].sendInterval = 1ms
*.host3.app[5].startTime = 73ms
*.host3.app[5].stopTime = 81ms
*.host3.app[5].display-name = "type2_4"
*.host3.app[5].destPort = 1001
*.host3.app[6].typename = "UdpBasicApp"
*.host3.app[6].destAddresses = "host10"
*.host3.app[6].source.packetNameFormat = "%M-%m-%c"
*.host3.app[6].source.displayStringTextFormat = "sent %p pk (%l)"
*.host3.app[6].messageLength = 14B
*.host3.app[6].sendInterval = 1ms
*.host3.app[6].startTime = 87ms
*.host3.app[6].stopTime = 93ms
*.host3.app[6].display-name = "type2_4"
*.host3.app[6].destPort = 1001
*.host3.app[7].typename = "UdpBasicApp"
*.host3.app[7].destAddresses = "host11"
*.host3.app[7].source.packetNameFormat = "%M-%m-%c"
*.host3.app[7].source.displayStringTextFormat = "sent %p pk (%l)"
*.host3.app[7].messageLength = 19B
*.host3.app[7].sendInterval = 1ms
*.host3.app[7].startTime = 5ms
*.host3.app[7].stopTime = 43ms
*.host3.app[7].display-name = "type2_8"
*.host3.app[7].destPort = 1001
*.host3.app[8].typename = "UdpBasicApp"
*.host3.app[8].destAddresses = "host11"
*.host3.app[8].source.packetNameFormat = "%M-%m-%c"
*.host3.app[8].source.displayStringTextFormat = "sent %p pk (%l)"
*.host3.app[8].messageLength = 19B
*.host3.app[8].sendInterval = 1ms
*.host3.app[8].startTime = 45ms
*.host3.app[8].stopTime = 49ms
*.host3.app[8].display-name = "type2_8"
*.host3.app[8].destPort = 1001
*.host3.app[9].typename = "UdpBasicApp"
*.host3.app[9].destAddresses = "host11"
*.host3.app[9].source.packetNameFormat = "%M-%m-%c"
*.host3.app[9].source.displayStringTextFormat = "sent %p pk (%l)"
*.host3.app[9].messageLength = 19B
*.host3.app[9].sendInterval = 1ms
*.host3.app[9].startTime = 51ms
*.host3.app[9].stopTime = 63ms
*.host3.app[9].display-name = "type2_8"
*.host3.app[9].destPort = 1001
*.host3.app[10].typename = "UdpBasicApp"
*.host3.app[10].destAddresses = "host11"
*.host3.app[10].source.packetNameFormat = "%M-%m-%c"
*.host3.app[10].source.displayStringTextFormat = "sent %p pk (%l)"
*.host3.app[10].messageLength = 19B
*.host3.app[10].sendInterval = 1ms
*.host3.app[10].startTime = 70ms
*.host3.app[10].stopTime = 94ms
*.host3.app[10].display-name = "type2_8"
*.host3.app[10].destPort = 1001
*.host3.app[11].typename = "UdpBasicApp"
*.host3.app[11].destAddresses = "host8"
*.host3.app[11].source.packetNameFormat = "%M-%m-%c"
*.host3.app[11].source.displayStringTextFormat = "sent %p pk (%l)"
*.host3.app[11].messageLength = 21B
*.host3.app[11].sendInterval = 1ms
*.host3.app[11].startTime = 12ms
*.host3.app[11].stopTime = 29ms
*.host3.app[11].display-name = "type2_11"
*.host3.app[11].destPort = 1001
*.host3.app[12].typename = "UdpBasicApp"
*.host3.app[12].destAddresses = "host8"
*.host3.app[12].source.packetNameFormat = "%M-%m-%c"
*.host3.app[12].source.displayStringTextFormat = "sent %p pk (%l)"
*.host3.app[12].messageLength = 21B
*.host3.app[12].sendInterval = 1ms
*.host3.app[12].startTime = 40ms
*.host3.app[12].stopTime = 48ms
*.host3.app[12].display-name = "type2_11"
*.host3.app[12].destPort = 1001
*.host3.app[13].typename = "UdpBasicApp"
*.host3.app[13].destAddresses = "host8"
*.host3.app[13].source.packetNameFormat = "%M-%m-%c"
*.host3.app[13].source.displayStringTextFormat = "sent %p pk (%l)"
*.host3.app[13].messageLength = 21B
*.host3.app[13].sendInterval = 1ms
*.host3.app[13].startTime = 68ms
*.host3.app[13].stopTime = 77ms
*.host3.app[13].display-name = "type2_11"
*.host3.app[13].destPort = 1001
*.host3.app[14].typename = "UdpBasicApp"
*.host3.app[14].destAddresses = "host8"
*.host3.app[14].source.packetNameFormat = "%M-%m-%c"
*.host3.app[14].source.displayStringTextFormat = "sent %p pk (%l)"
*.host3.app[14].messageLength = 21B
*.host3.app[14].sendInterval = 1ms
*.host3.app[14].startTime = 89ms
*.host3.app[14].stopTime = 96ms
*.host3.app[14].display-name = "type2_11"
*.host3.app[14].destPort = 1001
*.host3.app[15].typename = "UdpSinkApp"
*.host3.app[15].io.localPort = 1000
*.host4.numApps = 8
*.host4.app[0].typename = "UdpBasicApp"
*.host4.app[0].destAddresses = "host9"
*.host4.app[0].source.packetNameFormat = "%M-%m-%c"
*.host4.app[0].source.displayStringTextFormat = "sent %p pk (%l)"
*.host4.app[0].messageLength = 14B
*.host4.app[0].sendInterval = 1ms
*.host4.app[0].startTime = 2ms
*.host4.app[0].stopTime = 7ms
*.host4.app[0].display-name = "type2_14"
*.host4.app[0].destPort = 1003
*.host4.app[1].typename = "UdpBasicApp"
*.host4.app[1].destAddresses = "host9"
*.host4.app[1].source.packetNameFormat = "%M-%m-%c"
*.host4.app[1].source.displayStringTextFormat = "sent %p pk (%l)"
*.host4.app[1].messageLength = 14B
*.host4.app[1].sendInterval = 1ms
*.host4.app[1].startTime = 17ms
*.host4.app[1].stopTime = 25ms
*.host4.app[1].display-name = "type2_14"
*.host4.app[1].destPort = 1003
*.host4.app[2].typename = "UdpBasicApp"
*.host4.app[2].destAddresses = "host9"
*.host4.app[2].source.packetNameFormat = "%M-%m-%c"
*.host4.app[2].source.displayStringTextFormat = "sent %p pk (%l)"
*.host4.app[2].messageLength = 14B
*.host4.app[2].sendInterval = 1ms
*.host4.app[2].startTime = 33ms
*.host4.app[2].stopTime = 39ms
*.host4.app[2].display-name = "type2_14"
*.host4.app[2].destPort = 1003
*.host4.app[3].typename = "UdpBasicApp"
*.host4.app[3].destAddresses = "host9"
*.host4.app[3].source.packetNameFormat = "%M-%m-%c"
*.host4.app[3].source.displayStringTextFormat = "sent %p pk (%l)"
*.host4.app[3].messageLength = 14B
*.host4.app[3].sendInterval = 1ms
*.host4.app[3].startTime = 40ms
*.host4.app[3].stopTime = 49ms
*.host4.app[3].display-name = "type2_14"
*.host4.app[3].destPort = 1003
*.host4.app[4].typename = "UdpBasicApp"
*.host4.app[4].destAddresses = "host9"
*.host4.app[4].source.packetNameFormat = "%M-%m-%c"
*.host4.app[4].source.displayStringTextFormat = "sent %p pk (%l)"
*.host4.app[4].messageLength = 14B
*.host4.app[4].sendInterval = 1ms
*.host4.app[4].startTime = 54ms
*.host4.app[4].stopTime = 56ms
*.host4.app[4].display-name = "type2_14"
*.host4.app[4].destPort = 1003
*.host4.app[5].typename = "UdpBasicApp"
*.host4.app[5].destAddresses = "host9"
*.host4.app[5].source.packetNameFormat = "%M-%m-%c"
*.host4.app[5].source.displayStringTextFormat = "sent %p pk (%l)"
*.host4.app[5].messageLength = 14B
*.host4.app[5].sendInterval = 1ms
*.host4.app[5].startTime = 76ms
*.host4.app[5].stopTime = 82ms
*.host4.app[5].display-name = "type2_14"
*.host4.app[5].destPort = 1003
*.host4.app[6].typename = "UdpBasicApp"
*.host4.app[6].destAddresses = "host9"
*.host4.app[6].source.packetNameFormat = "%M-%m-%c"
*.host4.app[6].source.displayStringTextFormat = "sent %p pk (%l)"
*.host4.app[6].messageLength = 14B
*.host4.app[6].sendInterval = 1ms
*.host4.app[6].startTime = 86ms
*.host4.app[6].stopTime = 90ms
*.host4.app[6].display-name = "type2_14"
*.host4.app[6].destPort = 1003
*.host4.app[7].typename = "UdpBasicApp"
*.host4.app[7].destAddresses = "host9"
*.host4.app[7].source.packetNameFormat = "%M-%m-%c"
*.host4.app[7].source.displayStringTextFormat = "sent %p pk (%l)"
*.host4.app[7].messageLength = 14B
*.host4.app[7].sendInterval = 1ms
*.host4.app[7].startTime = 94ms
*.host4.app[7].stopTime = 100ms
*.host4.app[7].display-name = "type2_14"
*.host4.app[7].destPort = 1003
*.host5.numApps = 23
*.host5.app[0].typename = "UdpSourceApp"
*.host5.app[0].io.destAddress = "host7"
*.host5.app[0].source.packetNameFormat = "%M-%m-%c"
*.host5.app[0].source.displayStringTextFormat = "sent %p pk (%l)"
*.host5.app[0].source.packetLength = 14B
*.host5.app[0].source.productionInterval = 1ms
*.host5.app[0].display-name = "type1_1"
*.host5.app[0].io.destPort = 1000
*.host5.app[1].typename = "UdpSourceApp"
*.host5.app[1].io.destAddress = "host9"
*.host5.app[1].source.packetNameFormat = "%M-%m-%c"
*.host5.app[1].source.displayStringTextFormat = "sent %p pk (%l)"
*.host5.app[1].source.packetLength = 20B
*.host5.app[1].source.productionInterval = 1ms
*.host5.app[1].display-name = "type1_2"
*.host5.app[1].io.destPort = 1000
*.host5.app[2].typename = "UdpSinkApp"
*.host5.app[2].io.localPort = 1000
*.host5.app[3].typename = "UdpBasicApp"
*.host5.app[3].destAddresses = "host6"
*.host5.app[3].source.packetNameFormat = "%M-%m-%c"
*.host5.app[3].source.displayStringTextFormat = "sent %p pk (%l)"
*.host5.app[3].messageLength = 23B
*.host5.app[3].sendInterval = 1ms
*.host5.app[3].startTime = 4ms
*.host5.app[3].stopTime = 14ms
*.host5.app[3].display-name = "type2_0"
*.host5.app[3].destPort = 1000
*.host5.app[4].typename = "UdpBasicApp"
*.host5.app[4].destAddresses = "host6"
*.host5.app[4].source.packetNameFormat = "%M-%m-%c"
*.host5.app[4].source.displayStringTextFormat = "sent %p pk (%l)"
*.host5.app[4].messageLength = 23B
*.host5.app[4].sendInterval = 1ms
*.host5.app[4].startTime = 32ms
*.host5.app[4].stopTime = 37ms
*.host5.app[4].display-name = "type2_0"
*.host5.app[4].destPort = 1000
*.host5.app[5].typename = "UdpBasicApp"
*.host5.app[5].destAddresses = "host6"
*.host5.app[5].source.packetNameFormat = "%M-%m-%c"
*.host5.app[5].source.displayStringTextFormat = "sent %p pk (%l)"
*.host5.app[5].messageLength = 23B
*.host5.app[5].sendInterval = 1ms
*.host5.app[5].startTime = 45ms
*.host5.app[5].stopTime = 71ms
*.host5.app[5].display-name = "type2_0"
*.host5.app[5].destPort = 1000
*.host5.app[6].typename = "UdpBasicApp"
*.host5.app[6].destAddresses = "host6"
*.host5.app[6].source.packetNameFormat = "%M-%m-%c"