[General]
network = TSN_multipath
sim-time-limit = 10ms
*.macForwardingTableConfigurator.typename = ""
*.*.hasStreamRedundancy = true
*.*.bridging.streamRelay.typename = "StreamRelayLayer"
*.*.bridging.streamCoder.typename = "StreamCoderLayer"
*.streamRedundancyConfigurator.typename = "StreamRedundancyConfigurator"
*.host0.eth[0].bitrate = 1000Mbps
*.switch0.eth[0].bitrate = 1000Mbps
*.switch0.eth[1].bitrate = 1200Mbps
*.switch0.eth[2].bitrate = 2400Mbps
*.switch0.eth[3].bitrate = 1800Mbps
*.switch0.eth[4].bitrate = 1900Mbps
*.switch0.eth[5].bitrate = 1900Mbps
*.host1.eth[0].bitrate = 1000Mbps
*.switch1.eth[0].bitrate = 1000Mbps
*.switch1.eth[1].bitrate = 1800Mbps
*.switch1.eth[2].bitrate = 1700Mbps
*.switch1.eth[3].bitrate = 1700Mbps
*.switch1.eth[4].bitrate = 1200Mbps
*.host2.eth[0].bitrate = 1000Mbps
*.switch2.eth[0].bitrate = 1000Mbps
*.switch2.eth[1].bitrate = 1200Mbps
*.switch2.eth[2].bitrate = 1800Mbps
*.switch2.eth[3].bitrate = 1900Mbps
*.switch2.eth[4].bitrate = 1900Mbps
*.host3.eth[0].bitrate = 1000Mbps
*.switch3.eth[0].bitrate = 1000Mbps
*.switch3.eth[1].bitrate = 2400Mbps
*.switch3.eth[2].bitrate = 1700Mbps
*.switch3.eth[3].bitrate = 1900Mbps
*.switch3.eth[4].bitrate = 1700Mbps
*.switch3.eth[5].bitrate = 2100Mbps
*.host4.eth[0].bitrate = 1000Mbps
*.switch4.eth[0].bitrate = 1000Mbps
*.switch4.eth[1].bitrate = 1800Mbps
*.switch4.eth[2].bitrate = 2100Mbps
*.switch4.eth[3].bitrate = 1200Mbps
*.switch4.eth[4].bitrate = 1900Mbps
*.host0.numApps = 16
*.host0.app[0].typename = "UdpSourceApp"
*.host0.app[0].io.destAddress = "host2"
*.host0.app[0].source.packetNameFormat = "%M-%m-%c"
*.host0.app[0].source.displayStringTextFormat = "sent %p pk (%l)"
*.host0.app[0].source.packetLength = 16B
*.host0.app[0].source.productionInterval = 1ms
*.host0.app[0].display-name = "type1_3"
*.host0.app[0].io.destPort = 1000
*.host0.app[1].typename = "UdpBasicApp"
*.host0.app[1].destAddresses = "host2"
*.host0.app[1].source.packetNameFormat = "%M-%m-%c"
*.host0.app[1].source.displayStringTextFormat = "sent %p pk (%l)"
*.host0.app[1].messageLength = 17B
*.host0.app[1].sendInterval = 1ms
*.host0.app[1].startTime = 100us
*.host0.app[1].stopTime = 1500us
*.host0.app[1].display-name = "type2_0"
*.host0.app[1].destPort = 1001
*.host0.app[2].typename = "UdpBasicApp"
*.host0.app[2].destAddresses = "host2"
*.host0.app[2].source.packetNameFormat = "%M-%m-%c"
*.host0.app[2].source.displayStringTextFormat = "sent %p pk (%l)"
*.host0.app[2].messageLength = 17B
*.host0.app[2].sendInterval = 1ms
*.host0.app[2].startTime = 1800us
*.host0.app[2].stopTime = 3400us
*.host0.app[2].display-name = "type2_0"
*.host0.app[2].destPort = 1001
*.host0.app[3].typename = "UdpBasicApp"
*.host0.app[3].destAddresses = "host2"
*.host0.app[3].source.packetNameFormat = "%M-%m-%c"
*.host0.app[3].source.displayStringTextFormat = "sent %p pk (%l)"
*.host0.app[3].messageLength = 17B
*.host0.app[3].sendInterval = 1ms
*.host0.app[3].startTime = 4000us
*.host0.app[3].stopTime = 5600us
*.host0.app[3].display-name = "type2_0"
*.host0.app[3].destPort = 1001
*.host0.app[4].typename = "UdpBasicApp"
*.host0.app[4].destAddresses = "host2"
*.host0.app[4].source.packetNameFormat = "%M-%m-%c"
*.host0.app[4].source.displayStringTextFormat = "sent %p pk (%l)"
*.host0.app[4].messageLength = 17B
*.host0.app[4].sendInterval = 1ms
*.host0.app[4].startTime = 6100us
*.host0.app[4].stopTime = 6300us
*.host0.app[4].display-name = "type2_0"
*.host0.app[4].destPort = 1001
*.host0.app[5].typename = "UdpBasicApp"
*.host0.app[5].destAddresses = "host2"
*.host0.app[5].source.packetNameFormat = "%M-%m-%c"
*.host0.app[5].source.displayStringTextFormat = "sent %p pk (%l)"
*.host0.app[5].messageLength = 17B
*.host0.app[5].sendInterval = 1ms
*.host0.app[5].startTime = 6400us
*.host0.app[5].stopTime = 6800us
*.host0.app[5].display-name = "type2_0"
*.host0.app[5].destPort = 1001
*.host0.app[6].typename = "UdpBasicApp"
*.host0.app[6].destAddresses = "host2"
*.host0.app[6].source.packetNameFormat = "%M-%m-%c"
*.host0.app[6].source.displayStringTextFormat = "sent %p pk (%l)"
*.host0.app[6].messageLength = 17B
*.host0.app[6].sendInterval = 1ms
*.host0.app[6].startTime = 7100us
*.host0.app[6].stopTime = 9300us
*.host0.app[6].display-name = "type2_0"
*.host0.app[6].destPort = 1001
*.host0.app[7].typename = "UdpBasicApp"
*.host0.app[7].destAddresses = "host2"
*.host0.app[7].source.packetNameFormat = "%M-%m-%c"
*.host0.app[7].source.displayStringTextFormat = "sent %p pk (%l)"
*.host0.app[7].messageLength = 17B
*.host0.app[7].sendInterval = 1ms
*.host0.app[7].startTime = 9800us
*.host0.app[7].stopTime = 10000us
*.host0.app[7].display-name = "type2_0"
*.host0.app[7].destPort = 1001
*.host0.app[8].typename = "UdpSinkApp"
*.host0.app[8].io.localPort = 1000
*.host0.app[9].typename = "UdpBasicApp"
*.host0.app[9].destAddresses = "host4"
*.host0.app[9].source.packetNameFormat = "%M-%m-%c"
*.host0.app[9].source.displayStringTextFormat = "sent %p pk (%l)"
*.host0.app[9].messageLength = 24B
*.host0.app[9].sendInterval = 1ms
*.host0.app[9].startTime = 200us
*.host0.app[9].stopTime = 900us
*.host0.app[9].display-name = "type2_4"
*.host0.app[9].destPort = 1001
*.host0.app[10].typename = "UdpBasicApp"
*.host0.app[10].destAddresses = "host4"
*.host0.app[10].source.packetNameFormat = "%M-%m-%c"
*.host0.app[10].source.displayStringTextFormat = "sent %p pk (%l)"
*.host0.app[10].messageLength = 24B
*.host0.app[10].sendInterval = 1ms
*.host0.app[10].startTime = 1500us
*.host0.app[10].stopTime = 2800us
*.host0.app[10].display-name = "type2_4"
*.host0.app[10].destPort = 1001
*.host0.app[11].typename = "UdpBasicApp"
*.host0.app[11].destAddresses = "host4"
*.host0.app[11].source.packetNameFormat = "%M-%m-%c"
*.host0.app[11].source.displayStringTextFormat = "sent %p pk (%l)"
*.host0.app[11].messageLength = 24B
*.host0.app[11].sendInterval = 1ms
*.host0.app[11].startTime = 3000us
*.host0.app[11].stopTime = 5300us
*.host0.app[11].display-name = "type2_4"
*.host0.app[11].destPort = 1001
*.host0.app[12].typename = "UdpBasicApp"
*.host0.app[12].destAddresses = "host4"
*.host0.app[12].source.packetNameFormat = "%M-%m-%c"
*.host0.app[12].source.displayStringTextFormat = "sent %p pk (%l)"
*.host0.app[12].messageLength = 24B
*.host0.app[12].sendInterval = 1ms
*.host0.app[12].startTime = 5700us
*.host0.app[12].stopTime = 6000us
*.host0.app[12].display-name = "type2_4"
*.host0.app[12].destPort = 1001
*.host0.app[13].typename = "UdpBasicApp"
*.host0.app[13].destAddresses = "host4"
*.host0.app[13].source.packetNameFormat = "%M-%m-%c"
*.host0.app[13].source.displayStringTextFormat = "sent %p pk (%l)"
*.host0.app[13].messageLength = 24B
*.host0.app[13].sendInterval = 1ms
*.host0.app[13].startTime = 6100us
*.host0.app[13].stopTime = 6400us
*.host0.app[13].display-name = "type2_4"
*.host0.app[13].destPort = 1001
*.host0.app[14].typename = "UdpBasicApp"
*.host0.app[14].destAddresses = "host4"
*.host0.app[14].source.packetNameFormat = "%M-%m-%c"
*.host0.app[14].source.displayStringTextFormat = "sent %p pk (%l)"
*.host0.app[14].messageLength = 24B
*.host0.app[14].sendInterval = 1ms
*.host0.app[14].startTime = 8700us
*.host0.app[14].stopTime = 8900us
*.host0.app[14].display-name = "type2_4"
*.host0.app[14].destPort = 1001
*.host0.app[15].typename = "UdpBasicApp"
*.host0.app[15].destAddresses = "host4"
*.host0.app[15].source.packetNameFormat = "%M-%m-%c"
*.host0.app[15].source.displayStringTextFormat = "sent %p pk (%l)"
*.host0.app[15].messageLength = 24B
*.host0.app[15].sendInterval = 1ms
*.host0.app[15].startTime = 9100us
*.host0.app[15].stopTime = 9300us
*.host0.app[15].display-name = "type2_4"
*.host0.app[15].destPort = 1001
*.host1.numApps = 1
*.host1.app[0].typename = "UdpSinkApp"
*.host1.app[0].io.localPort = 1000
*.host2.numApps = 7
*.host2.app[0].typename = "UdpSinkApp"
*.host2.app[0].io.localPort = 1000
*.host2.app[1].typename = "UdpSinkApp"
*.host2.app[1].io.localPort = 1001
*.host2.app[2].typename = "UdpBasicApp"
*.host2.app[2].destAddresses = "host3"
*.host2.app[2].source.packetNameFormat = "%M-%m-%c"
*.host2.app[2].source.displayStringTextFormat = "sent %p pk (%l)"
*.host2.app[2].messageLength = 18B
*.host2.app[2].sendInterval = 1ms
*.host2.app[2].startTime = 500us
*.host2.app[2].stopTime = 1800us
*.host2.app[2].display-name = "type2_3"
*.host2.app[2].destPort = 1003
*.host2.app[3].typename = "UdpBasicApp"
*.host2.app[3].destAddresses = "host3"
*.host2.app[3].source.packetNameFormat = "%M-%m-%c"
*.host2.app[3].source.displayStringTextFormat = "sent %p pk (%l)"
*.host2.app[3].messageLength = 18B
*.host2.app[3].sendInterval = 1ms
*.host2.app[3].startTime = 3400us
*.host2.app[3].stopTime = 5200us
*.host2.app[3].display-name = "type2_3"
*.host2.app[3].destPort = 1003
*.host2.app[4].typename = "UdpBasicApp"
*.host2.app[4].destAddresses = "host3"
*.host2.app[4].source.packetNameFormat = "%M-%m-%c"
*.host2.app[4].source.displayStringTextFormat = "sent %p pk (%l)"
*.host2.app[4].messageLength = 18B
*.host2.app[4].sendInterval = 1ms
*.host2.app[4].startTime = 5900us
*.host2.app[4].stopTime = 6800us
*.host2.app[4].display-name = "type2_3"
*.host2.app[4].destPort = 1003
*.host2.app[5].typename = "UdpBasicApp"
*.host2.app[5].destAddresses = "host3"
*.host2.app[5].source.packetNameFormat = "%M-%m-%c"
*.host2.app[5].source.displayStringTextFormat = "sent %p pk (%l)"
*.host2.app[5].messageLength = 18B
*.host2.app[5].sendInterval = 1ms
*.host2.app[5].startTime = 7000us
*.host2.app[5].stopTime = 9000us
*.host2.app[5].display-name = "type2_3"
*.host2.app[5].destPort = 1003
*.host2.app[6].typename = "UdpBasicApp"
*.host2.app[6].destAddresses = "host3"
*.host2.app[6].source.packetNameFormat = "%M-%m-%c"
*.host2.app[6].source.displayStringTextFormat = "sent %p pk (%l)"
*.host2.app[6].messageLength = 18B
*.host2.app[6].sendInterval = 1ms
*.host2.app[6].startTime = 9200us
*.host2.app[6].stopTime = 10000us
*.host2.app[6].display-name = "type2_3"
*.host2.app[6].destPort = 1003
*.host3.numApps = 13
*.host3.app[0].typename = "UdpSinkApp"
*.host3.app[0].io.localPort = 1000
*.host3.app[1].typename = "UdpSinkApp"
*.host3.app[1].io.localPort = 1001
*.host3.app[2].typename = "UdpSourceApp"
*.host3.app[2].io.destAddress = "host4"
*.host3.app[2].source.packetNameFormat = "%M-%m-%c"
*.host3.app[2].source.displayStringTextFormat = "sent %p pk (%l)"
*.host3.app[2].source.packetLength = 12B
*.host3.app[2].source.productionInterval = 1ms
*.host3.app[2].display-name = "type1_4"
*.host3.app[2].io.destPort = 1000
*.host3.app[3].typename = "UdpSinkApp"
*.host3.app[3].io.localPort = 1002
*.host3.app[4].typename = "UdpBasicApp"
*.host3.app[4].destAddresses = "host0"
*.host3.app[4].source.packetNameFormat = "%M-%m-%c"
*.host3.app[4].source.displayStringTextFormat = "sent %p pk (%l)"
*.host3.app[4].messageLength = 13B
*.host3.app[4].sendInterval = 1ms
*.host3.app[4].startTime = 200us
*.host3.app[4].stopTime = 900us
*.host3.app[4].display-name = "type2_2"
*.host3.app[4].destPort = 1000
*.host3.app[5].typename = "UdpBasicApp"
*.host3.app[5].destAddresses = "host0"
*.host3.app[5].source.packetNameFormat = "%M-%m-%c"
*.host3.app[5].source.displayStringTextFormat = "sent %p pk (%l)"
*.host3.app[5].messageLength = 13B
*.host3.app[5].sendInterval = 1ms
*.host3.app[5].startTime = 3000us
*.host3.app[5].stopTime = 5100us
*.host3.app[5].display-name = "type2_2"
*.host3.app[5].destPort = 1000
*.host3.app[6].typename = "UdpBasicApp"
*.host3.app[6].destAddresses = "host0"
*.host3.app[6].source.packetNameFormat = "%M-%m-%c"
*.host3.app[6].source.displayStringTextFormat = "sent %p pk (%l)"
*.host3.app[6].messageLength = 13B
*.host3.app[6].sendInterval = 1ms
*.host3.app[6].startTime = 5300us
*.host3.app[6].stopTime = 5400us
*.host3.app[6].display-name = "type2_2"
*.host3.app[6].destPort = 1000
*.host3.app[7].typename = "UdpBasicApp"
*.host3.app[7].destAddresses = "host0"
*.host3.app[7].source.packetNameFormat = "%M-%m-%c"
*.host3.app[7].source.displayStringTextFormat = "sent %p pk (%l)"
*.host3.app[7].messageLength = 13B
*.host3.app[7].sendInterval = 1ms
*.host3.app[7].startTime = 5700us
*.host3.app[7].stopTime = 6000us
*.host3.app[7].display-name = "type2_2"
*.host3.app[7].destPort = 1000
*.host3.app[8].typename = "UdpBasicApp"
*.host3.app[8].destAddresses = "host0"
*.host3.app[8].source.packetNameFormat = "%M-%m-%c"
*.host3.app[8].source.displayStringTextFormat = "sent %p pk (%l)"
*.host3.app[8].messageLength = 13B
*.host3.app[8].sendInterval = 1ms
*.host3.app[8].startTime = 6100us
*.host3.app[8].stopTime = 6200us
*.host3.app[8].display-name = "type2_2"
*.host3.app[8].destPort = 1000
*.host3.app[9].typename = "UdpBasicApp"
*.host3.app[9].destAddresses = "host0"
*.host3.app[9].source.packetNameFormat = "%M-%m-%c"
*.host3.app[9].source.displayStringTextFormat = "sent %p pk (%l)"
*.host3.app[9].messageLength = 13B
*.host3.app[9].sendInterval = 1ms
*.host3.app[9].startTime = 6300us
*.host3.app[9].stopTime = 6400us
*.host3.app[9].display-name = "type2_2"
*.host3.app[9].destPort = 1000
*.host3.app[10].typename = "UdpBasicApp"
*.host3.app[10].destAddresses = "host0"
*.host3.app[10].source.packetNameFormat = "%M-%m-%c"
*.host3.app[10].source.displayStringTextFormat = "sent %p pk (%l)"
*.host3.app[10].messageLength = 13B
*.host3.app[10].sendInterval = 1ms
*.host3.app[10].startTime = 8000us
*.host3.app[10].stopTime = 8300us
*.host3.app[10].display-name = "type2_2"
*.host3.app[10].destPort = 1000
*.host3.app[11].typename = "UdpBasicApp"
*.host3.app[11].destAddresses = "host0"
*.host3.app[11].source.packetNameFormat = "%M-%m-%c"
*.host3.app[11].source.displayStringTextFormat = "sent %p pk (%l)"
*.host3.app[11].messageLength = 13B
*.host3.app[11].sendInterval = 1ms
*.host3.app[11].startTime = 9200us
*.host3.app[11].stopTime = 10000us
*.host3.app[11].display-name = "type2_2"
*.host3.app[11].destPort = 1000
*.host3.app[12].typename = "UdpSinkApp"
*.host3.app[12].io.localPort = 1003
*.host4.numApps = 9
*.host4.app[0].typename = "UdpSourceApp"
*.host4.app[0].io.destAddress = "host3"
*.host4.app[0].source.packetNameFormat = "%M-%m-%c"
*.host4.app[0].source.displayStringTextFormat = "sent %p pk (%l)"
*.host4.app[0].source.packetLength = 22B
*.host4.app[0].source.productionInterval = 1ms
*.host4.app[0].display-name = "type1_0"
*.host4.app[0].io.destPort = 1000
*.host4.app[1].typename = "UdpSourceApp"
*.host4.app[1].io.destAddress = "host1"
*.host4.app[1].source.packetNameFormat = "%M-%m-%c"
*.host4.app[1].source.displayStringTextFormat = "sent %p pk (%l)"
*.host4.app[1].source.packetLength = 22B
*.host4.app[1].source.productionInterval = 1ms
*.host4.app[1].display-name = "type1_1"
*.host4.app[1].io.destPort = 1000
*.host4.app[2].typename = "UdpSourceApp"
*.host4.app[2].io.destAddress = "host3"
*.host4.app[2].source.packetNameFormat = "%M-%m-%c"
*.host4.app[2].source.displayStringTextFormat = "sent %p pk (%l)"
*.host4.app[2].source.packetLength = 14B
*.host4.app[2].source.productionInterval = 1ms
*.host4.app[2].display-name = "type1_2"
*.host4.app[2].io.destPort = 1001
*.host4.app[3].typename = "UdpSinkApp"
*.host4.app[3].io.localPort = 1000
*.host4.app[4].typename = "UdpBasicApp"
*.host4.app[4].destAddresses = "host3"
*.host4.app[4].source.packetNameFormat = "%M-%m-%c"
*.host4.app[4].source.displayStringTextFormat = "sent %p pk (%l)"
*.host4.app[4].messageLength = 21B
*.host4.app[4].sendInterval = 1ms
*.host4.app[4].startTime = 400us
*.host4.app[4].stopTime = 3500us
*.host4.app[4].display-name = "type2_1"
*.host4.app[4].destPort = 1002
*.host4.app[5].typename = "UdpBasicApp"
*.host4.app[5].destAddresses = "host3"
*.host4.app[5].source.packetNameFormat = "%M-%m-%c"
*.host4.app[5].source.displayStringTextFormat = "sent %p pk (%l)"
*.host4.app[5].messageLength = 21B
*.host4.app[5].sendInterval = 1ms
*.host4.app[5].startTime = 4600us
*.host4.app[5].stopTime = 5500us
*.host4.app[5].display-name = "type2_1"
*.host4.app[5].destPort = 1002
*.host4.app[6].typename = "UdpBasicApp"
*.host4.app[6].destAddresses = "host3"
*.host4.app[6].source.packetNameFormat = "%M-%m-%c"
*.host4.app[6].source.displayStringTextFormat = "sent %p pk (%l)"
*.host4.app[6].messageLength = 21B
*.host4.app[6].sendInterval = 1ms
*.host4.app[6].startTime = 6300us
*.host4.app[6].stopTime = 8100us
*.host4.app[6].display-name = "type2_1"
*.host4.app[6].destPort = 1002
*.host4.app[7].typename = "UdpBasicApp"
*.host4.app[7].destAddresses = "host3"
*.host4.app[7].source.packetNameFormat = "%M-%m-%c"
*.host4.app[7].source.displayStringTextFormat = "sent %p pk (%l)"
*.host4.app[7].messageLength = 21B
*.host4.app[7].sendInterval = 1ms
*.host4.app[7].startTime = 8900us
*.host4.app[7].stopTime = 10000us
*.host4.app[7].display-name = "type2_1"
*.host4.app[7].destPort = 1002
*.host4.app[8].typename = "UdpSinkApp"
*.host4.app[8].io.localPort = 1001
*.streamRedundancyConfigurator.configuration = [
	{
		name: "S1-0",
		packetFilter: "*-type1_0-*",
		source: "host4",
		destination: "host3",
		trees: [[["host4", "switch4", "switch2", "switch0", "switch3", "host3"]]]
	},
	{
		name: "S1-1",
		packetFilter: "*-type1_1-*",
		source: "host4",
		destination: "host1",
		trees: [[["host4", "switch4", "switch2", "switch0", "switch3", "switch1", "host1"]]]
	},
	{
		name: "S1-2",
		packetFilter: "*-type1_2-*",
		source: "host4",
		destination: "host3",
		trees: [[["host4", "switch4", "switch2", "switch0", "switch3", "host3"]]]
	},
	{
		name: "S1-3",
		packetFilter: "*-type1_3-*",
		source: "host0",
		destination: "host2",
		trees: [[["host0", "switch0", "switch2", "host2"]]]
	},
	{
		name: "S1-4",
		packetFilter: "*-type1_4-*",
		source: "host3",
		destination: "host4",
		trees: [[["host3", "switch3", "switch4", "host4"]]]
	},
	{
		name: "S2-0",
		packetFilter: "*-type2_0-*",
		source: "host0",
		destination: "host2",
		trees: [[["host0", "switch0", "switch3", "switch4", "switch2", "host2"]]]
	},
	{
		name: "S2-1",
		packetFilter: "*-type2_1-*",
		source: "host4",
		destination: "host3",
		trees: [[["host4", "switch4", "switch2", "switch0", "switch3", "host3"]]]
	},
	{
		name: "S2-2",
		packetFilter: "*-type2_2-*",
		source: "host3",
		destination: "host0",
		trees: [[["host3", "switch3", "switch4", "switch2", "switch0", "host0"]]]
	},
	{
		name: "S2-3",
		packetFilter: "*-type2_3-*",
		source: "host2",
		destination: "host3",
		trees: [[["host2", "switch2", "switch0", "switch3", "host3"]]]
	},
	{
		name: "S2-4",
		packetFilter: "*-type2_4-*",
		source: "host0",
		destination: "host4",
		trees: [[["host0", "switch0", "switch3", "switch4", "host4"]]]
	}]
	

