[General]
network = TSN_multipath
sim-time-limit = 100ms
*.macForwardingTableConfigurator.typename = ""
*.*.hasStreamRedundancy = true
*.*.bridging.streamRelay.typename = "StreamRelayLayer"
*.*.bridging.streamCoder.typename = "StreamCoderLayer"
*.streamRedundancyConfigurator.typename = "StreamRedundancyConfigurator"
*.host0.eth[0].bitrate = 1000Mbps
*.switch0.eth[0].bitrate = 1000Mbps
*.switch0.eth[1].bitrate = 1300Mbps
*.switch0.eth[2].bitrate = 1500Mbps
*.switch0.eth[3].bitrate = 1500Mbps
*.switch0.eth[4].bitrate = 1200Mbps
*.switch0.eth[5].bitrate = 2400Mbps
*.host1.eth[0].bitrate = 1000Mbps
*.switch1.eth[0].bitrate = 1000Mbps
*.switch1.eth[1].bitrate = 1300Mbps
*.switch1.eth[2].bitrate = 2000Mbps
*.switch1.eth[3].bitrate = 2000Mbps
*.host2.eth[0].bitrate = 1000Mbps
*.switch2.eth[0].bitrate = 1000Mbps
*.switch2.eth[1].bitrate = 2000Mbps
*.switch2.eth[2].bitrate = 1200Mbps
*.host3.eth[0].bitrate = 1000Mbps
*.switch3.eth[0].bitrate = 1000Mbps
*.switch3.eth[1].bitrate = 1500Mbps
*.switch3.eth[2].bitrate = 2400Mbps
*.host4.eth[0].bitrate = 1000Mbps
*.switch4.eth[0].bitrate = 1000Mbps
*.switch4.eth[1].bitrate = 1500Mbps
*.switch4.eth[2].bitrate = 2000Mbps
*.host0.numApps = 5
*.host0.app[0].typename = "UdpSinkApp"
*.host0.app[0].io.localPort = 1000
*.host0.app[1].typename = "UdpSinkApp"
*.host0.app[1].io.localPort = 1001
*.host0.app[2].typename = "UdpBasicApp"
*.host0.app[2].destAddresses = "host2"
*.host0.app[2].source.packetNameFormat = "%M-%m-%c"
*.host0.app[2].source.displayStringTextFormat = "sent %p pk (%l)"
*.host0.app[2].messageLength = 14B
*.host0.app[2].sendInterval = 1ms
*.host0.app[2].startTime = 25ms
*.host0.app[2].stopTime = 53ms
*.host0.app[2].display-name = "type2_3"
*.host0.app[2].destPort = 1001
*.host0.app[3].typename = "UdpBasicApp"
*.host0.app[3].destAddresses = "host2"
*.host0.app[3].source.packetNameFormat = "%M-%m-%c"
*.host0.app[3].source.displayStringTextFormat = "sent %p pk (%l)"
*.host0.app[3].messageLength = 14B
*.host0.app[3].sendInterval = 1ms
*.host0.app[3].startTime = 85ms
*.host0.app[3].stopTime = 86ms
*.host0.app[3].display-name = "type2_3"
*.host0.app[3].destPort = 1001
*.host0.app[4].typename = "UdpBasicApp"
*.host0.app[4].destAddresses = "host2"
*.host0.app[4].source.packetNameFormat = "%M-%m-%c"
*.host0.app[4].source.displayStringTextFormat = "sent %p pk (%l)"
*.host0.app[4].messageLength = 14B
*.host0.app[4].sendInterval = 1ms
*.host0.app[4].startTime = 87ms
*.host0.app[4].stopTime = 93ms
*.host0.app[4].display-name = "type2_3"
*.host0.app[4].destPort = 1001
*.host1.numApps = 13
*.host1.app[0].typename = "UdpSinkApp"
*.host1.app[0].io.localPort = 1000
*.host1.app[1].typename = "UdpSinkApp"
*.host1.app[1].io.localPort = 1001
*.host1.app[2].typename = "UdpSourceApp"
*.host1.app[2].io.destAddress = "host3"
*.host1.app[2].source.packetNameFormat = "%M-%m-%c"
*.host1.app[2].source.displayStringTextFormat = "sent %p pk (%l)"
*.host1.app[2].source.packetLength = 22B
*.host1.app[2].source.productionInterval = 1ms
*.host1.app[2].display-name = "type1_3"
*.host1.app[2].io.destPort = 1000
*.host1.app[3].typename = "UdpSourceApp"
*.host1.app[3].io.destAddress = "host2"
*.host1.app[3].source.packetNameFormat = "%M-%m-%c"
*.host1.app[3].source.displayStringTextFormat = "sent %p pk (%l)"
*.host1.app[3].source.packetLength = 24B
*.host1.app[3].source.productionInterval = 1ms
*.host1.app[3].display-name = "type1_4"
*.host1.app[3].io.destPort = 1000
*.host1.app[4].typename = "UdpBasicApp"
*.host1.app[4].destAddresses = "host0"
*.host1.app[4].source.packetNameFormat = "%M-%m-%c"
*.host1.app[4].source.displayStringTextFormat = "sent %p pk (%l)"
*.host1.app[4].messageLength = 23B
*.host1.app[4].sendInterval = 1ms
*.host1.app[4].startTime = 1ms
*.host1.app[4].stopTime = 27ms
*.host1.app[4].display-name = "type2_0"
*.host1.app[4].destPort = 1001
*.host1.app[5].typename = "UdpBasicApp"
*.host1.app[5].destAddresses = "host0"
*.host1.app[5].source.packetNameFormat = "%M-%m-%c"
*.host1.app[5].source.displayStringTextFormat = "sent %p pk (%l)"
*.host1.app[5].messageLength = 23B
*.host1.app[5].sendInterval = 1ms
*.host1.app[5].startTime = 28ms
*.host1.app[5].stopTime = 40ms
*.host1.app[5].display-name = "type2_0"
*.host1.app[5].destPort = 1001
*.host1.app[6].typename = "UdpBasicApp"
*.host1.app[6].destAddresses = "host0"
*.host1.app[6].source.packetNameFormat = "%M-%m-%c"
*.host1.app[6].source.displayStringTextFormat = "sent %p pk (%l)"
*.host1.app[6].messageLength = 23B
*.host1.app[6].sendInterval = 1ms
*.host1.app[6].startTime = 44ms
*.host1.app[6].stopTime = 49ms
*.host1.app[6].display-name = "type2_0"
*.host1.app[6].destPort = 1001
*.host1.app[7].typename = "UdpBasicApp"
*.host1.app[7].destAddresses = "host0"
*.host1.app[7].source.packetNameFormat = "%M-%m-%c"
*.host1.app[7].source.displayStringTextFormat = "sent %p pk (%l)"
*.host1.app[7].messageLength = 23B
*.host1.app[7].sendInterval = 1ms
*.host1.app[7].startTime = 57ms
*.host1.app[7].stopTime = 71ms
*.host1.app[7].display-name = "type2_0"
*.host1.app[7].destPort = 1001
*.host1.app[8].typename = "UdpBasicApp"
*.host1.app[8].destAddresses = "host0"
*.host1.app[8].source.packetNameFormat = "%M-%m-%c"
*.host1.app[8].source.displayStringTextFormat = "sent %p pk (%l)"
*.host1.app[8].messageLength = 23B
*.host1.app[8].sendInterval = 1ms
*.host1.app[8].startTime = 73ms
*.host1.app[8].stopTime = 80ms
*.host1.app[8].display-name = "type2_0"
*.host1.app[8].destPort = 1001
*.host1.app[9].typename = "UdpBasicApp"
*.host1.app[9].destAddresses = "host0"
*.host1.app[9].source.packetNameFormat = "%M-%m-%c"
*.host1.app[9].source.displayStringTextFormat = "sent %p pk (%l)"
*.host1.app[9].messageLength = 23B
*.host1.app[9].sendInterval = 1ms
*.host1.app[9].startTime = 84ms
*.host1.app[9].stopTime = 92ms
*.host1.app[9].display-name = "type2_0"
*.host1.app[9].destPort = 1001
*.host1.app[10].typename = "UdpBasicApp"
*.host1.app[10].destAddresses = "host0"
*.host1.app[10].source.packetNameFormat = "%M-%m-%c"
*.host1.app[10].source.displayStringTextFormat = "sent %p pk (%l)"
*.host1.app[10].messageLength = 23B
*.host1.app[10].sendInterval = 1ms
*.host1.app[10].startTime = 94ms
*.host1.app[10].stopTime = 100ms
*.host1.app[10].display-name = "type2_0"
*.host1.app[10].destPort = 1001
*.host1.app[11].typename = "UdpSinkApp"
*.host1.app[11].io.localPort = 1002
*.host1.app[12].typename = "UdpSinkApp"
*.host1.app[12].io.localPort = 1003
*.host2.numApps = 3
*.host2.app[0].typename = "UdpSinkApp"
*.host2.app[0].io.localPort = 1000
*.host2.app[1].typename = "UdpSinkApp"
*.host2.app[1].io.localPort = 1001
*.host2.app[2].typename = "UdpSinkApp"
*.host2.app[2].io.localPort = 1002
*.host3.numApps = 11
*.host3.app[0].typename = "UdpSourceApp"
*.host3.app[0].io.destAddress = "host0"
*.host3.app[0].source.packetNameFormat = "%M-%m-%c"
*.host3.app[0].source.displayStringTextFormat = "sent %p pk (%l)"
*.host3.app[0].source.packetLength = 16B
*.host3.app[0].source.productionInterval = 1ms
*.host3.app[0].display-name = "type1_0"
*.host3.app[0].io.destPort = 1000
*.host3.app[1].typename = "UdpSinkApp"
*.host3.app[1].io.localPort = 1000
*.host3.app[2].typename = "UdpBasicApp"
*.host3.app[2].destAddresses = "host1"
*.host3.app[2].source.packetNameFormat = "%M-%m-%c"
*.host3.app[2].source.displayStringTextFormat = "sent %p pk (%l)"
*.host3.app[2].messageLength = 22B
*.host3.app[2].sendInterval = 1ms
*.host3.app[2].startTime = 42ms
*.host3.app[2].stopTime = 45ms
*.host3.app[2].display-name = "type2_2"
*.host3.app[2].destPort = 1003
*.host3.app[3].typename = "UdpBasicApp"
*.host3.app[3].destAddresses = "host1"
*.host3.app[3].source.packetNameFormat = "%M-%m-%c"
*.host3.app[3].source.displayStringTextFormat = "sent %p pk (%l)"
*.host3.app[3].messageLength = 22B
*.host3.app[3].sendInterval = 1ms
*.host3.app[3].startTime = 52ms
*.host3.app[3].stopTime = 55ms
*.host3.app[3].display-name = "type2_2"
*.host3.app[3].destPort = 1003
*.host3.app[4].typename = "UdpBasicApp"
*.host3.app[4].destAddresses = "host1"
*.host3.app[4].source.packetNameFormat = "%M-%m-%c"
*.host3.app[4].source.displayStringTextFormat = "sent %p pk (%l)"
*.host3.app[4].messageLength = 22B
*.host3.app[4].sendInterval = 1ms
*.host3.app[4].startTime = 67ms
*.host3.app[4].stopTime = 69ms
*.host3.app[4].display-name = "type2_2"
*.host3.app[4].destPort = 1003
*.host3.app[5].typename = "UdpBasicApp"
*.host3.app[5].destAddresses = "host1"
*.host3.app[5].source.packetNameFormat = "%M-%m-%c"
*.host3.app[5].source.displayStringTextFormat = "sent %p pk (%l)"
*.host3.app[5].messageLength = 22B
*.host3.app[5].sendInterval = 1ms
*.host3.app[5].startTime = 76ms
*.host3.app[5].stopTime = 83ms
*.host3.app[5].display-name = "type2_2"
*.host3.app[5].destPort = 1003
*.host3.app[6].typename = "UdpBasicApp"
*.host3.app[6].destAddresses = "host1"
*.host3.app[6].source.packetNameFormat = "%M-%m-%c"
*.host3.app[6].source.displayStringTextFormat = "sent %p pk (%l)"
*.host3.app[6].messageLength = 22B
*.host3.app[6].sendInterval = 1ms
*.host3.app[6].startTime = 88ms
*.host3.app[6].stopTime = 97ms
*.host3.app[6].display-name = "type2_2"
*.host3.app[6].destPort = 1003
*.host3.app[7].typename = "UdpBasicApp"
*.host3.app[7].destAddresses = "host2"
*.host3.app[7].source.packetNameFormat = "%M-%m-%c"
*.host3.app[7].source.displayStringTextFormat = "sent %p pk (%l)"
*.host3.app[7].messageLength = 21B
*.host3.app[7].sendInterval = 1ms
*.host3.app[7].startTime = 0ms
*.host3.app[7].stopTime = 7ms
*.host3.app[7].display-name = "type2_4"
*.host3.app[7].destPort = 1002
*.host3.app[8].typename = "UdpBasicApp"
*.host3.app[8].destAddresses = "host2"
*.host3.app[8].source.packetNameFormat = "%M-%m-%c"
*.host3.app[8].source.displayStringTextFormat = "sent %p pk (%l)"
*.host3.app[8].messageLength = 21B
*.host3.app[8].sendInterval = 1ms
*.host3.app[8].startTime = 41ms
*.host3.app[8].stopTime = 42ms
*.host3.app[8].display-name = "type2_4"
*.host3.app[8].destPort = 1002
*.host3.app[9].typename = "UdpBasicApp"
*.host3.app[9].destAddresses = "host2"
*.host3.app[9].source.packetNameFormat = "%M-%m-%c"
*.host3.app[9].source.displayStringTextFormat = "sent %p pk (%l)"
*.host3.app[9].messageLength = 21B
*.host3.app[9].sendInterval = 1ms
*.host3.app[9].startTime = 66ms
*.host3.app[9].stopTime = 68ms
*.host3.app[9].display-name = "type2_4"
*.host3.app[9].destPort = 1002
*.host3.app[10].typename = "UdpBasicApp"
*.host3.app[10].destAddresses = "host2"
*.host3.app[10].source.packetNameFormat = "%M-%m-%c"
*.host3.app[10].source.displayStringTextFormat = "sent %p pk (%l)"
*.host3.app[10].messageLength = 21B
*.host3.app[10].sendInterval = 1ms
*.host3.app[10].startTime = 79ms
*.host3.app[10].stopTime = 99ms
*.host3.app[10].display-name = "type2_4"
*.host3.app[10].destPort = 1002
*.host4.numApps = 8
*.host4.app[0].typename = "UdpSourceApp"
*.host4.app[0].io.destAddress = "host1"
*.host4.app[0].source.packetNameFormat = "%M-%m-%c"
*.host4.app[0].source.displayStringTextFormat = "sent %p pk (%l)"
*.host4.app[0].source.packetLength = 12B
*.host4.app[0].source.productionInterval = 1ms
*.host4.app[0].display-name = "type1_1"
*.host4.app[0].io.destPort = 1000
*.host4.app[1].typename = "UdpSourceApp"
*.host4.app[1].io.destAddress = "host1"
*.host4.app[1].source.packetNameFormat = "%M-%m-%c"
*.host4.app[1].source.displayStringTextFormat = "sent %p pk (%l)"
*.host4.app[1].source.packetLength = 14B
*.host4.app[1].source.productionInterval = 1ms
*.host4.app[1].display-name = "type1_2"
*.host4.app[1].io.destPort = 1001
*.host4.app[2].typename = "UdpBasicApp"
*.host4.app[2].destAddresses = "host1"
*.host4.app[2].source.packetNameFormat = "%M-%m-%c"
*.host4.app[2].source.displayStringTextFormat = "sent %p pk (%l)"
*.host4.app[2].messageLength = 23B
*.host4.app[2].sendInterval = 1ms
*.host4.app[2].startTime = 6ms
*.host4.app[2].stopTime = 16ms
*.host4.app[2].display-name = "type2_1"
*.host4.app[2].destPort = 1002
*.host4.app[3].typename = "UdpBasicApp"
*.host4.app[3].destAddresses = "host1"
*.host4.app[3].source.packetNameFormat = "%M-%m-%c"
*.host4.app[3].source.displayStringTextFormat = "sent %p pk (%l)"
*.host4.app[3].messageLength = 23B
*.host4.app[3].sendInterval = 1ms
*.host4.app[3].startTime = 18ms
*.host4.app[3].stopTime = 34ms
*.host4.app[3].display-name = "type2_1"
*.host4.app[3].destPort = 1002
*.host4.app[4].typename = "UdpBasicApp"
*.host4.app[4].destAddresses = "host1"
*.host4.app[4].source.packetNameFormat = "%M-%m-%c"
*.host4.app[4].source.displayStringTextFormat = "sent %p pk (%l)"
*.host4.app[4].messageLength = 23B
*.host4.app[4].sendInterval = 1ms
*.host4.app[4].startTime = 46ms
*.host4.app[4].stopTime = 61ms
*.host4.app[4].display-name = "type2_1"
*.host4.app[4].destPort = 1002
*.host4.app[5].typename = "UdpBasicApp"
*.host4.app[5].destAddresses = "host1"
*.host4.app[5].source.packetNameFormat = "%M-%m-%c"
*.host4.app[5].source.displayStringTextFormat = "sent %p pk (%l)"
*.host4.app[5].messageLength = 23B
*.host4.app[5].sendInterval = 1ms
*.host4.app[5].startTime = 63ms
*.host4.app[5].stopTime = 76ms
*.host4.app[5].display-name = "type2_1"
*.host4.app[5].destPort = 1002
*.host4.app[6].typename = "UdpBasicApp"
*.host4.app[6].destAddresses = "host1"
*.host4.app[6].source.packetNameFormat = "%M-%m-%c"
*.host4.app[6].source.displayStringTextFormat = "sent %p pk (%l)"
*.host4.app[6].messageLength = 23B
*.host4.app[6].sendInterval = 1ms
*.host4.app[6].startTime = 77ms
*.host4.app[6].stopTime = 78ms
*.host4.app[6].display-name = "type2_1"
*.host4.app[6].destPort = 1002
*.host4.app[7].typename = "UdpBasicApp"
*.host4.app[7].destAddresses = "host1"
*.host4.app[7].source.packetNameFormat = "%M-%m-%c"
*.host4.app[7].source.displayStringTextFormat = "sent %p pk (%l)"
*.host4.app[7].messageLength = 23B
*.host4.app[7].sendInterval = 1ms
*.host4.app[7].startTime = 90ms
*.host4.app[7].stopTime = 100ms
*.host4.app[7].display-name = "type2_1"
*.host4.app[7].destPort = 1002
*.streamRedundancyConfigurator.configuration = [
	{
		name: "S1-0",
		packetFilter: "*-type1_0-*",
		source: "host3",
		destination: "host0",
		trees: [[["host3", "switch3", "switch0", "host0"]]]
	},
	{
		name: "S1-1",
		packetFilter: "*-type1_1-*",
		source: "host4",
		destination: "host1",
		trees: [[["host4", "switch4", "switch1", "host1"]]]
	},
	{
		name: "S1-2",
		packetFilter: "*-type1_2-*",
		source: "host4",
		destination: "host1",
		trees: [[["host4", "switch4", "switch1", "host1"]]]
	},
	{
		name: "S1-3",
		packetFilter: "*-type1_3-*",
		source: "host1",
		destination: "host3",
		trees: [[["host1", "switch1", "switch2", "switch0", "switch3", "host3"]]]
	},
	{
		name: "S1-4",
		packetFilter: "*-type1_4-*",
		source: "host1",
		destination: "host2",
		trees: [[["host1", "switch1", "switch2", "host2"]]]
	},
	{
		name: "S2-0",
		packetFilter: "*-type2_0-*",
		source: "host1",
		destination: "host0",
		trees: [[["host1", "switch1", "switch2", "switch0", "host0"]]]
	},
	{
		name: "S2-1",
		packetFilter: "*-type2_1-*",
		source: "host4",
		destination: "host1",
		trees: [[["host4", "switch4", "switch1", "host1"]]]
	},
	{
		name: "S2-2",
		packetFilter: "*-type2_2-*",
		source: "host3",
		destination: "host1",
		trees: [[["host3", "switch3", "switch0", "switch1", "host1"]]]
	},
	{
		name: "S2-3",
		packetFilter: "*-type2_3-*",
		source: "host0",
		destination: "host2",
		trees: [[["host0", "switch0", "switch1", "switch2", "host2"]]]
	},
	{
		name: "S2-4",
		packetFilter: "*-type2_4-*",
		source: "host3",
		destination: "host2",
		trees: [[["host3", "switch3", "switch0", "switch1", "switch2", "host2"]]]
	}]
	

