[General]
network = TSN_multipath
sim-time-limit = 10ms
*.macForwardingTableConfigurator.typename = ""
*.*.hasStreamRedundancy = true
*.*.bridging.streamRelay.typename = "StreamRelayLayer"
*.*.bridging.streamCoder.typename = "StreamCoderLayer"
*.streamRedundancyConfigurator.typename = "StreamRedundancyConfigurator"
*.host0.eth[0].bitrate = 1000Mbps
*.switch0.eth[0].bitrate = 1000Mbps
*.switch0.eth[1].bitrate = 1200Mbps
*.switch0.eth[2].bitrate = 1800Mbps
*.host1.eth[0].bitrate = 1000Mbps
*.switch1.eth[0].bitrate = 1000Mbps
*.switch1.eth[1].bitrate = 2300Mbps
*.switch1.eth[2].bitrate = 2400Mbps
*.host2.eth[0].bitrate = 1000Mbps
*.switch2.eth[0].bitrate = 1000Mbps
*.switch2.eth[1].bitrate = 2400Mbps
*.switch2.eth[2].bitrate = 2000Mbps
*.switch2.eth[3].bitrate = 1400Mbps
*.switch2.eth[4].bitrate = 1400Mbps
*.switch2.eth[5].bitrate = 2400Mbps
*.host3.eth[0].bitrate = 1000Mbps
*.switch3.eth[0].bitrate = 1000Mbps
*.switch3.eth[1].bitrate = 2000Mbps
*.switch3.eth[2].bitrate = 1800Mbps
*.switch3.eth[3].bitrate = 1400Mbps
*.switch3.eth[4].bitrate = 2300Mbps
*.switch3.eth[5].bitrate = 2200Mbps
*.host4.eth[0].bitrate = 1000Mbps
*.switch4.eth[0].bitrate = 1000Mbps
*.switch4.eth[1].bitrate = 1200Mbps
*.switch4.eth[2].bitrate = 2300Mbps
*.switch4.eth[3].bitrate = 1400Mbps
*.switch4.eth[4].bitrate = 2300Mbps
*.switch4.eth[5].bitrate = 2400Mbps
*.switch4.eth[6].bitrate = 2200Mbps
*.host0.numApps = 26
*.host0.app[0].typename = "UdpSinkApp"
*.host0.app[0].io.localPort = 1000
*.host0.app[1].typename = "UdpBasicApp"
*.host0.app[1].destAddresses = "host2"
*.host0.app[1].source.packetNameFormat = "%M-%m-%c"
*.host0.app[1].source.displayStringTextFormat = "sent %p pk (%l)"
*.host0.app[1].messageLength = 15B
*.host0.app[1].sendInterval = 1ms
*.host0.app[1].startTime = 0us
*.host0.app[1].stopTime = 300us
*.host0.app[1].display-name = "type2_1"
*.host0.app[1].destPort = 1001
*.host0.app[2].typename = "UdpBasicApp"
*.host0.app[2].destAddresses = "host2"
*.host0.app[2].source.packetNameFormat = "%M-%m-%c"
*.host0.app[2].source.displayStringTextFormat = "sent %p pk (%l)"
*.host0.app[2].messageLength = 15B
*.host0.app[2].sendInterval = 1ms
*.host0.app[2].startTime = 500us
*.host0.app[2].stopTime = 600us
*.host0.app[2].display-name = "type2_1"
*.host0.app[2].destPort = 1001
*.host0.app[3].typename = "UdpBasicApp"
*.host0.app[3].destAddresses = "host2"
*.host0.app[3].source.packetNameFormat = "%M-%m-%c"
*.host0.app[3].source.displayStringTextFormat = "sent %p pk (%l)"
*.host0.app[3].messageLength = 15B
*.host0.app[3].sendInterval = 1ms
*.host0.app[3].startTime = 2600us
*.host0.app[3].stopTime = 3700us
*.host0.app[3].display-name = "type2_1"
*.host0.app[3].destPort = 1001
*.host0.app[4].typename = "UdpBasicApp"
*.host0.app[4].destAddresses = "host2"
*.host0.app[4].source.packetNameFormat = "%M-%m-%c"
*.host0.app[4].source.displayStringTextFormat = "sent %p pk (%l)"
*.host0.app[4].messageLength = 15B
*.host0.app[4].sendInterval = 1ms
*.host0.app[4].startTime = 4800us
*.host0.app[4].stopTime = 5300us
*.host0.app[4].display-name = "type2_1"
*.host0.app[4].destPort = 1001
*.host0.app[5].typename = "UdpBasicApp"
*.host0.app[5].destAddresses = "host2"
*.host0.app[5].source.packetNameFormat = "%M-%m-%c"
*.host0.app[5].source.displayStringTextFormat = "sent %p pk (%l)"
*.host0.app[5].messageLength = 15B
*.host0.app[5].sendInterval = 1ms
*.host0.app[5].startTime = 5700us
*.host0.app[5].stopTime = 7100us
*.host0.app[5].display-name = "type2_1"
*.host0.app[5].destPort = 1001
*.host0.app[6].typename = "UdpBasicApp"
*.host0.app[6].destAddresses = "host2"
*.host0.app[6].source.packetNameFormat = "%M-%m-%c"
*.host0.app[6].source.displayStringTextFormat = "sent %p pk (%l)"
*.host0.app[6].messageLength = 15B
*.host0.app[6].sendInterval = 1ms
*.host0.app[6].startTime = 8000us
*.host0.app[6].stopTime = 8500us
*.host0.app[6].display-name = "type2_1"
*.host0.app[6].destPort = 1001
*.host0.app[7].typename = "UdpBasicApp"
*.host0.app[7].destAddresses = "host2"
*.host0.app[7].source.packetNameFormat = "%M-%m-%c"
*.host0.app[7].source.displayStringTextFormat = "sent %p pk (%l)"
*.host0.app[7].messageLength = 15B
*.host0.app[7].sendInterval = 1ms
*.host0.app[7].startTime = 9000us
*.host0.app[7].stopTime = 9100us
*.host0.app[7].display-name = "type2_1"
*.host0.app[7].destPort = 1001
*.host0.app[8].typename = "UdpBasicApp"
*.host0.app[8].destAddresses = "host2"
*.host0.app[8].source.packetNameFormat = "%M-%m-%c"
*.host0.app[8].source.displayStringTextFormat = "sent %p pk (%l)"
*.host0.app[8].messageLength = 15B
*.host0.app[8].sendInterval = 1ms
*.host0.app[8].startTime = 9400us
*.host0.app[8].stopTime = 9700us
*.host0.app[8].display-name = "type2_1"
*.host0.app[8].destPort = 1001
*.host0.app[9].typename = "UdpBasicApp"
*.host0.app[9].destAddresses = "host2"
*.host0.app[9].source.packetNameFormat = "%M-%m-%c"
*.host0.app[9].source.displayStringTextFormat = "sent %p pk (%l)"
*.host0.app[9].messageLength = 15B
*.host0.app[9].sendInterval = 1ms
*.host0.app[9].startTime = 9900us
*.host0.app[9].stopTime = 10000us
*.host0.app[9].display-name = "type2_1"
*.host0.app[9].destPort = 1001
*.host0.app[10].typename = "UdpBasicApp"
*.host0.app[10].destAddresses = "host2"
*.host0.app[10].source.packetNameFormat = "%M-%m-%c"
*.host0.app[10].source.displayStringTextFormat = "sent %p pk (%l)"
*.host0.app[10].messageLength = 15B
*.host0.app[10].sendInterval = 1ms
*.host0.app[10].startTime = 300us
*.host0.app[10].stopTime = 500us
*.host0.app[10].display-name = "type2_3"
*.host0.app[10].destPort = 1002
*.host0.app[11].typename = "UdpBasicApp"
*.host0.app[11].destAddresses = "host2"
*.host0.app[11].source.packetNameFormat = "%M-%m-%c"
*.host0.app[11].source.displayStringTextFormat = "sent %p pk (%l)"
*.host0.app[11].messageLength = 15B
*.host0.app[11].sendInterval = 1ms
*.host0.app[11].startTime = 1500us
*.host0.app[11].stopTime = 1800us
*.host0.app[11].display-name = "type2_3"
*.host0.app[11].destPort = 1002
*.host0.app[12].typename = "UdpBasicApp"
*.host0.app[12].destAddresses = "host2"
*.host0.app[12].source.packetNameFormat = "%M-%m-%c"
*.host0.app[12].source.displayStringTextFormat = "sent %p pk (%l)"
*.host0.app[12].messageLength = 15B
*.host0.app[12].sendInterval = 1ms
*.host0.app[12].startTime = 1900us
*.host0.app[12].stopTime = 4600us
*.host0.app[12].display-name = "type2_3"
*.host0.app[12].destPort = 1002
*.host0.app[13].typename = "UdpBasicApp"
*.host0.app[13].destAddresses = "host2"
*.host0.app[13].source.packetNameFormat = "%M-%m-%c"
*.host0.app[13].source.displayStringTextFormat = "sent %p pk (%l)"
*.host0.app[13].messageLength = 15B
*.host0.app[13].sendInterval = 1ms
*.host0.app[13].startTime = 4800us
*.host0.app[13].stopTime = 6200us
*.host0.app[13].display-name = "type2_3"
*.host0.app[13].destPort = 1002
*.host0.app[14].typename = "UdpBasicApp"
*.host0.app[14].destAddresses = "host2"
*.host0.app[14].source.packetNameFormat = "%M-%m-%c"
*.host0.app[14].source.displayStringTextFormat = "sent %p pk (%l)"
*.host0.app[14].messageLength = 15B
*.host0.app[14].sendInterval = 1ms
*.host0.app[14].startTime = 6500us
*.host0.app[14].stopTime = 6600us
*.host0.app[14].display-name = "type2_3"
*.host0.app[14].destPort = 1002
*.host0.app[15].typename = "UdpBasicApp"
*.host0.app[15].destAddresses = "host2"
*.host0.app[15].source.packetNameFormat = "%M-%m-%c"
*.host0.app[15].source.displayStringTextFormat = "sent %p pk (%l)"
*.host0.app[15].messageLength = 15B
*.host0.app[15].sendInterval = 1ms
*.host0.app[15].startTime = 6800us
*.host0.app[15].stopTime = 7500us
*.host0.app[15].display-name = "type2_3"
*.host0.app[15].destPort = 1002
*.host0.app[16].typename = "UdpBasicApp"
*.host0.app[16].destAddresses = "host2"
*.host0.app[16].source.packetNameFormat = "%M-%m-%c"
*.host0.app[16].source.displayStringTextFormat = "sent %p pk (%l)"
*.host0.app[16].messageLength = 15B
*.host0.app[16].sendInterval = 1ms
*.host0.app[16].startTime = 7800us
*.host0.app[16].stopTime = 7900us
*.host0.app[16].display-name = "type2_3"
*.host0.app[16].destPort = 1002
*.host0.app[17].typename = "UdpBasicApp"
*.host0.app[17].destAddresses = "host2"
*.host0.app[17].source.packetNameFormat = "%M-%m-%c"
*.host0.app[17].source.displayStringTextFormat = "sent %p pk (%l)"
*.host0.app[17].messageLength = 15B
*.host0.app[17].sendInterval = 1ms
*.host0.app[17].startTime = 8300us
*.host0.app[17].stopTime = 10000us
*.host0.app[17].display-name = "type2_3"
*.host0.app[17].destPort = 1002
*.host0.app[18].typename = "UdpBasicApp"
*.host0.app[18].destAddresses = "host2"
*.host0.app[18].source.packetNameFormat = "%M-%m-%c"
*.host0.app[18].source.displayStringTextFormat = "sent %p pk (%l)"
*.host0.app[18].messageLength = 22B
*.host0.app[18].sendInterval = 1ms
*.host0.app[18].startTime = 1500us
*.host0.app[18].stopTime = 1600us
*.host0.app[18].display-name = "type2_5"
*.host0.app[18].destPort = 1004
*.host0.app[19].typename = "UdpBasicApp"
*.host0.app[19].destAddresses = "host2"
*.host0.app[19].source.packetNameFormat = "%M-%m-%c"
*.host0.app[19].source.displayStringTextFormat = "sent %p pk (%l)"
*.host0.app[19].messageLength = 22B
*.host0.app[19].sendInterval = 1ms
*.host0.app[19].startTime = 2300us
*.host0.app[19].stopTime = 2600us
*.host0.app[19].display-name = "type2_5"
*.host0.app[19].destPort = 1004
*.host0.app[20].typename = "UdpBasicApp"
*.host0.app[20].destAddresses = "host2"
*.host0.app[20].source.packetNameFormat = "%M-%m-%c"
*.host0.app[20].source.displayStringTextFormat = "sent %p pk (%l)"
*.host0.app[20].messageLength = 22B
*.host0.app[20].sendInterval = 1ms
*.host0.app[20].startTime = 2900us
*.host0.app[20].stopTime = 3300us
*.host0.app[20].display-name = "type2_5"
*.host0.app[20].destPort = 1004
*.host0.app[21].typename = "UdpBasicApp"
*.host0.app[21].destAddresses = "host2"
*.host0.app[21].source.packetNameFormat = "%M-%m-%c"
*.host0.app[21].source.displayStringTextFormat = "sent %p pk (%l)"
*.host0.app[21].messageLength = 22B
*.host0.app[21].sendInterval = 1ms
*.host0.app[21].startTime = 3400us
*.host0.app[21].stopTime = 3800us
*.host0.app[21].display-name = "type2_5"
*.host0.app[21].destPort = 1004
*.host0.app[22].typename = "UdpBasicApp"
*.host0.app[22].destAddresses = "host2"
*.host0.app[22].source.packetNameFormat = "%M-%m-%c"
*.host0.app[22].source.displayStringTextFormat = "sent %p pk (%l)"
*.host0.app[22].messageLength = 22B
*.host0.app[22].sendInterval = 1ms
*.host0.app[22].startTime = 4600us
*.host0.app[22].stopTime = 6400us
*.host0.app[22].display-name = "type2_5"
*.host0.app[22].destPort = 1004
*.host0.app[23].typename = "UdpBasicApp"
*.host0.app[23].destAddresses = "host2"
*.host0.app[23].source.packetNameFormat = "%M-%m-%c"
*.host0.app[23].source.displayStringTextFormat = "sent %p pk (%l)"
*.host0.app[23].messageLength = 22B
*.host0.app[23].sendInterval = 1ms
*.host0.app[23].startTime = 6500us
*.host0.app[23].stopTime = 8200us
*.host0.app[23].display-name = "type2_5"
*.host0.app[23].destPort = 1004
*.host0.app[24].typename = "UdpBasicApp"
*.host0.app[24].destAddresses = "host2"
*.host0.app[24].source.packetNameFormat = "%M-%m-%c"
*.host0.app[24].source.displayStringTextFormat = "sent %p pk (%l)"
*.host0.app[24].messageLength = 22B
*.host0.app[24].sendInterval = 1ms
*.host0.app[24].startTime = 8700us
*.host0.app[24].stopTime = 9000us
*.host0.app[24].display-name = "type2_5"
*.host0.app[24].destPort = 1004
*.host0.app[25].typename = "UdpBasicApp"
*.host0.app[25].destAddresses = "host2"
*.host0.app[25].source.packetNameFormat = "%M-%m-%c"
*.host0.app[25].source.displayStringTextFormat = "sent %p pk (%l)"
*.host0.app[25].messageLength = 22B
*.host0.app[25].sendInterval = 1ms
*.host0.app[25].startTime = 9600us
*.host0.app[25].stopTime = 10000us
*.host0.app[25].display-name = "type2_5"
*.host0.app[25].destPort = 1004
*.host1.numApps = 10
*.host1.app[0].typename = "UdpSourceApp"
*.host1.app[0].io.destAddress = "host2"
*.host1.app[0].source.packetNameFormat = "%M-%m-%c"
*.host1.app[0].source.displayStringTextFormat = "sent %p pk (%l)"
*.host1.app[0].source.packetLength = 12B
*.host1.app[0].source.productionInterval = 1ms
*.host1.app[0].display-name = "type1_0"
*.host1.app[0].io.destPort = 1000
*.host1.app[1].typename = "UdpSourceApp"
*.host1.app[1].io.destAddress = "host3"
*.host1.app[1].source.packetNameFormat = "%M-%m-%c"
*.host1.app[1].source.displayStringTextFormat = "sent %p pk (%l)"
*.host1.app[1].source.packetLength = 14B
*.host1.app[1].source.productionInterval = 1ms
*.host1.app[1].display-name = "type1_1"
*.host1.app[1].io.destPort = 1000
*.host1.app[2].typename = "UdpBasicApp"
*.host1.app[2].destAddresses = "host2"
*.host1.app[2].source.packetNameFormat = "%M-%m-%c"
*.host1.app[2].source.displayStringTextFormat = "sent %p pk (%l)"
*.host1.app[2].messageLength = 14B
*.host1.app[2].sendInterval = 1ms
*.host1.app[2].startTime = 100us
*.host1.app[2].stopTime = 2100us
*.host1.app[2].display-name = "type2_4"
*.host1.app[2].destPort = 1003
*.host1.app[3].typename = "UdpBasicApp"
*.host1.app[3].destAddresses = "host2"
*.host1.app[3].source.packetNameFormat = "%M-%m-%c"
*.host1.app[3].source.displayStringTextFormat = "sent %p pk (%l)"
*.host1.app[3].messageLength = 14B
*.host1.app[3].sendInterval = 1ms
*.host1.app[3].startTime = 3600us
*.host1.app[3].stopTime = 3800us
*.host1.app[3].display-name = "type2_4"
*.host1.app[3].destPort = 1003
*.host1.app[4].typename = "UdpBasicApp"
*.host1.app[4].destAddresses = "host2"
*.host1.app[4].source.packetNameFormat = "%M-%m-%c"
*.host1.app[4].source.displayStringTextFormat = "sent %p pk (%l)"
*.host1.app[4].messageLength = 14B
*.host1.app[4].sendInterval = 1ms
*.host1.app[4].startTime = 4000us
*.host1.app[4].stopTime = 4600us
*.host1.app[4].display-name = "type2_4"
*.host1.app[4].destPort = 1003
*.host1.app[5].typename = "UdpBasicApp"
*.host1.app[5].destAddresses = "host2"
*.host1.app[5].source.packetNameFormat = "%M-%m-%c"
*.host1.app[5].source.displayStringTextFormat = "sent %p pk (%l)"
*.host1.app[5].messageLength = 14B
*.host1.app[5].sendInterval = 1ms
*.host1.app[5].startTime = 5600us
*.host1.app[5].stopTime = 6300us
*.host1.app[5].display-name = "type2_4"
*.host1.app[5].destPort = 1003
*.host1.app[6].typename = "UdpBasicApp"
*.host1.app[6].destAddresses = "host2"
*.host1.app[6].source.packetNameFormat = "%M-%m-%c"
*.host1.app[6].source.displayStringTextFormat = "sent %p pk (%l)"
*.host1.app[6].messageLength = 14B
*.host1.app[6].sendInterval = 1ms
*.host1.app[6].startTime = 6600us
*.host1.app[6].stopTime = 6700us
*.host1.app[6].display-name = "type2_4"
*.host1.app[6].destPort = 1003
*.host1.app[7].typename = "UdpBasicApp"
*.host1.app[7].destAddresses = "host2"
*.host1.app[7].source.packetNameFormat = "%M-%m-%c"
*.host1.app[7].source.displayStringTextFormat = "sent %p pk (%l)"
*.host1.app[7].messageLength = 14B
*.host1.app[7].sendInterval = 1ms
*.host1.app[7].startTime = 6900us
*.host1.app[7].stopTime = 7300us
*.host1.app[7].display-name = "type2_4"
*.host1.app[7].destPort = 1003
*.host1.app[8].typename = "UdpBasicApp"
*.host1.app[8].destAddresses = "host2"
*.host1.app[8].source.packetNameFormat = "%M-%m-%c"
*.host1.app[8].source.displayStringTextFormat = "sent %p pk (%l)"
*.host1.app[8].messageLength = 14B
*.host1.app[8].sendInterval = 1ms
*.host1.app[8].startTime = 7600us
*.host1.app[8].stopTime = 7800us
*.host1.app[8].display-name = "type2_4"
*.host1.app[8].destPort = 1003
*.host1.app[9].typename = "UdpBasicApp"
*.host1.app[9].destAddresses = "host2"
*.host1.app[9].source.packetNameFormat = "%M-%m-%c"
*.host1.app[9].source.displayStringTextFormat = "sent %p pk (%l)"
*.host1.app[9].messageLength = 14B
*.host1.app[9].sendInterval = 1ms
*.host1.app[9].startTime = 7900us
*.host1.app[9].stopTime = 9800us
*.host1.app[9].display-name = "type2_4"
*.host1.app[9].destPort = 1003
*.host2.numApps = 12
*.host2.app[0].typename = "UdpSinkApp"
*.host2.app[0].io.localPort = 1000
*.host2.app[1].typename = "UdpBasicApp"
*.host2.app[1].destAddresses = "host0"
*.host2.app[1].source.packetNameFormat = "%M-%m-%c"
*.host2.app[1].source.displayStringTextFormat = "sent %p pk (%l)"
*.host2.app[1].messageLength = 21B
*.host2.app[1].sendInterval = 1ms
*.host2.app[1].startTime = 0us
*.host2.app[1].stopTime = 100us
*.host2.app[1].display-name = "type2_0"
*.host2.app[1].destPort = 1000
*.host2.app[2].typename = "UdpBasicApp"
*.host2.app[2].destAddresses = "host0"
*.host2.app[2].source.packetNameFormat = "%M-%m-%c"
*.host2.app[2].source.displayStringTextFormat = "sent %p pk (%l)"
*.host2.app[2].messageLength = 21B
*.host2.app[2].sendInterval = 1ms
*.host2.app[2].startTime = 800us
*.host2.app[2].stopTime = 3800us
*.host2.app[2].display-name = "type2_0"
*.host2.app[2].destPort = 1000
*.host2.app[3].typename = "UdpBasicApp"
*.host2.app[3].destAddresses = "host0"
*.host2.app[3].source.packetNameFormat = "%M-%m-%c"
*.host2.app[3].source.displayStringTextFormat = "sent %p pk (%l)"
*.host2.app[3].messageLength = 21B
*.host2.app[3].sendInterval = 1ms
*.host2.app[3].startTime = 5000us
*.host2.app[3].stopTime = 5100us
*.host2.app[3].display-name = "type2_0"
*.host2.app[3].destPort = 1000
*.host2.app[4].typename = "UdpBasicApp"
*.host2.app[4].destAddresses = "host0"
*.host2.app[4].source.packetNameFormat = "%M-%m-%c"
*.host2.app[4].source.displayStringTextFormat = "sent %p pk (%l)"
*.host2.app[4].messageLength = 21B
*.host2.app[4].sendInterval = 1ms
*.host2.app[4].startTime = 5500us
*.host2.app[4].stopTime = 5900us
*.host2.app[4].display-name = "type2_0"
*.host2.app[4].destPort = 1000
*.host2.app[5].typename = "UdpBasicApp"
*.host2.app[5].destAddresses = "host0"
*.host2.app[5].source.packetNameFormat = "%M-%m-%c"
*.host2.app[5].source.displayStringTextFormat = "sent %p pk (%l)"
*.host2.app[5].messageLength = 21B
*.host2.app[5].sendInterval = 1ms
*.host2.app[5].startTime = 7000us
*.host2.app[5].stopTime = 7800us
*.host2.app[5].display-name = "type2_0"
*.host2.app[5].destPort = 1000
*.host2.app[6].typename = "UdpBasicApp"
*.host2.app[6].destAddresses = "host0"
*.host2.app[6].source.packetNameFormat = "%M-%m-%c"
*.host2.app[6].source.displayStringTextFormat = "sent %p pk (%l)"
*.host2.app[6].messageLength = 21B
*.host2.app[6].sendInterval = 1ms
*.host2.app[6].startTime = 8400us
*.host2.app[6].stopTime = 8500us
*.host2.app[6].display-name = "type2_0"
*.host2.app[6].destPort = 1000
*.host2.app[7].typename = "UdpBasicApp"
*.host2.app[7].destAddresses = "host0"
*.host2.app[7].source.packetNameFormat = "%M-%m-%c"
*.host2.app[7].source.displayStringTextFormat = "sent %p pk (%l)"
*.host2.app[7].messageLength = 21B
*.host2.app[7].sendInterval = 1ms
*.host2.app[7].startTime = 9700us
*.host2.app[7].stopTime = 9800us
*.host2.app[7].display-name = "type2_0"
*.host2.app[7].destPort = 1000
*.host2.app[8].typename = "UdpSinkApp"
*.host2.app[8].io.localPort = 1001
*.host2.app[9].typename = "UdpSinkApp"
*.host2.app[9].io.localPort = 1002
*.host2.app[10].typename = "UdpSinkApp"
*.host2.app[10].io.localPort = 1003
*.host2.app[11].typename = "UdpSinkApp"
*.host2.app[11].io.localPort = 1004
*.host3.numApps = 5
*.host3.app[0].typename = "UdpSinkApp"
*.host3.app[0].io.localPort = 1000
*.host3.app[1].typename = "UdpBasicApp"
*.host3.app[1].destAddresses = "host4"
*.host3.app[1].source.packetNameFormat = "%M-%m-%c"
*.host3.app[1].source.displayStringTextFormat = "sent %p pk (%l)"
*.host3.app[1].messageLength = 22B
*.host3.app[1].sendInterval = 1ms
*.host3.app[1].startTime = 600us
*.host3.app[1].stopTime = 2500us
*.host3.app[1].display-name = "type2_2"
*.host3.app[1].destPort = 1000
*.host3.app[2].typename = "UdpBasicApp"
*.host3.app[2].destAddresses = "host4"
*.host3.app[2].source.packetNameFormat = "%M-%m-%c"
*.host3.app[2].source.displayStringTextFormat = "sent %p pk (%l)"
*.host3.app[2].messageLength = 22B
*.host3.app[2].sendInterval = 1ms
*.host3.app[2].startTime = 2700us
*.host3.app[2].stopTime = 3600us
*.host3.app[2].display-name = "type2_2"
*.host3.app[2].destPort = 1000
*.host3.app[3].typename = "UdpBasicApp"
*.host3.app[3].destAddresses = "host4"
*.host3.app[3].source.packetNameFormat = "%M-%m-%c"
*.host3.app[3].source.displayStringTextFormat = "sent %p pk (%l)"
*.host3.app[3].messageLength = 22B
*.host3.app[3].sendInterval = 1ms
*.host3.app[3].startTime = 5500us
*.host3.app[3].stopTime = 8300us
*.host3.app[3].display-name = "type2_2"
*.host3.app[3].destPort = 1000
*.host3.app[4].typename = "UdpBasicApp"
*.host3.app[4].destAddresses = "host4"
*.host3.app[4].source.packetNameFormat = "%M-%m-%c"
*.host3.app[4].source.displayStringTextFormat = "sent %p pk (%l)"
*.host3.app[4].messageLength = 22B
*.host3.app[4].sendInterval = 1ms
*.host3.app[4].startTime = 9800us
*.host3.app[4].stopTime = 10000us
*.host3.app[4].display-name = "type2_2"
*.host3.app[4].destPort = 1000
*.host4.numApps = 1
*.host4.app[0].typename = "UdpSinkApp"
*.host4.app[0].io.localPort = 1000
*.streamRedundancyConfigurator.configuration = [
	{
		name: "S1-0",
		packetFilter: "*-type1_0-*",
		source: "host1",
		destination: "host2",
		trees: [[["host1", "switch1", "switch4", "switch3", "switch2", "host2"]]]
	},
	{
		name: "S1-1",
		packetFilter: "*-type1_1-*",
		source: "host1",
		destination: "host3",
		trees: [[["host1", "switch1", "switch4", "switch3", "host3"]]]
	},
	{
		name: "S2-0",
		packetFilter: "*-type2_0-*",
		source: "host2",
		destination: "host0",
		trees: [[["host2", "switch2", "switch3", "switch0", "host0"]]]
	},
	{
		name: "S2-1",
		packetFilter: "*-type2_1-*",
		source: "host0",
		destination: "host2",
		trees: [[["host0", "switch0", "switch4", "switch2", "host2"]]]
	},
	{
		name: "S2-2",
		packetFilter: "*-type2_2-*",
		source: "host3",
		destination: "host4",
		trees: [[["host3", "switch3", "switch0", "switch4", "host4"]]]
	},
	{
		name: "S2-3",
		packetFilter: "*-type2_3-*",
		source: "host0",
		destination: "host2",
		trees: [[["host0", "switch0", "switch4", "switch2", "host2"]]]
	},
	{
		name: "S2-4",
		packetFilter: "*-type2_4-*",
		source: "host1",
		destination: "host2",
		trees: [[["host1", "switch1", "switch4", "switch2", "host2"]]]
	},
	{
		name: "S2-5",
		packetFilter: "*-type2_5-*",
		source: "host0",
		destination: "host2",
		trees: [[["host0", "switch0", "switch4", "switch2", "host2"]]]
	}]
	

