[General]
network = TSN_multipath
sim-time-limit = 100ms
*.macForwardingTableConfigurator.typename = ""
*.*.hasStreamRedundancy = true
*.*.bridging.streamRelay.typename = "StreamRelayLayer"
*.*.bridging.streamCoder.typename = "StreamCoderLayer"
*.streamRedundancyConfigurator.typename = "StreamRedundancyConfigurator"
*.host0.eth[0].bitrate = 1000Mbps
*.switch0.eth[0].bitrate = 1000Mbps
*.switch0.eth[1].bitrate = 2300Mbps
*.switch0.eth[2].bitrate = 1700Mbps
*.switch0.eth[3].bitrate = 1400Mbps
*.host1.eth[0].bitrate = 1000Mbps
*.switch1.eth[0].bitrate = 1000Mbps
*.switch1.eth[1].bitrate = 2300Mbps
*.switch1.eth[2].bitrate = 1600Mbps
*.switch1.eth[3].bitrate = 1600Mbps
*.switch1.eth[4].bitrate = 1200Mbps
*.switch1.eth[5].bitrate = 1400Mbps
*.host2.eth[0].bitrate = 1000Mbps
*.switch2.eth[0].bitrate = 1000Mbps
*.switch2.eth[1].bitrate = 1600Mbps
*.switch2.eth[2].bitrate = 1400Mbps
*.switch2.eth[3].bitrate = 1400Mbps
*.switch2.eth[4].bitrate = 1900Mbps
*.switch2.eth[5].bitrate = 1700Mbps
*.switch2.eth[6].bitrate = 1900Mbps
*.host3.eth[0].bitrate = 1000Mbps
*.switch3.eth[0].bitrate = 1000Mbps
*.switch3.eth[1].bitrate = 1700Mbps
*.switch3.eth[2].bitrate = 1600Mbps
*.switch3.eth[3].bitrate = 1900Mbps
*.switch3.eth[4].bitrate = 1700Mbps
*.switch3.eth[5].bitrate = 2300Mbps
*.switch3.eth[6].bitrate = 2400Mbps
*.host4.eth[0].bitrate = 1000Mbps
*.switch4.eth[0].bitrate = 1000Mbps
*.switch4.eth[1].bitrate = 1200Mbps
*.switch4.eth[2].bitrate = 2300Mbps
*.switch4.eth[3].bitrate = 1900Mbps
*.switch4.eth[4].bitrate = 2400Mbps
*.host2.numApps = 1
*.host2.app[0].typename = "UdpSourceApp"
*.host2.app[0].io.destAddress = "host1"
*.host2.app[0].source.packetNameFormat = "%M-%m-%c"
*.host2.app[0].source.displayStringTextFormat = "sent %p pk (%l)"
*.host2.app[0].source.packetLength = 24B
*.host2.app[0].source.productionInterval = 1ms
*.host2.app[0].display-name = "type1_1"
*.host2.app[0].io.destPort = 1000
*.host1.numApps = 1
*.host1.app[0].typename = "UdpSinkApp"
*.host1.app[0].io.localPort = 1000
*.streamRedundancyConfigurator.configuration = [
	{
		name: "shortest_path",
		packetFilter: "*-type1_1-*",
		source: "host2",
		destination: "host1",
		trees: [[["host2", "switch2", "switch1", "host1"]]]
	}]
	

