[General]
network = TSN_multipath
sim-time-limit = 100ms
*.macForwardingTableConfigurator.typename = ""
*.*.hasStreamRedundancy = true
*.*.bridging.streamRelay.typename = "StreamRelayLayer"
*.*.bridging.streamCoder.typename = "StreamCoderLayer"
*.streamRedundancyConfigurator.typename = "StreamRedundancyConfigurator"
*.host0.eth[0].bitrate = 1000Mbps
*.switch0.eth[0].bitrate = 1000Mbps
*.switch0.eth[1].bitrate = 2400Mbps
*.switch0.eth[2].bitrate = 2300Mbps
*.switch0.eth[3].bitrate = 1300Mbps
*.switch0.eth[4].bitrate = 2200Mbps
*.switch0.eth[5].bitrate = 1600Mbps
*.switch0.eth[6].bitrate = 2100Mbps
*.switch0.eth[7].bitrate = 1500Mbps
*.switch0.eth[8].bitrate = 1700Mbps
*.switch0.eth[9].bitrate = 1600Mbps
*.switch0.eth[10].bitrate = 2300Mbps
*.host1.eth[0].bitrate = 1000Mbps
*.switch1.eth[0].bitrate = 1000Mbps
*.switch1.eth[1].bitrate = 1700Mbps
*.switch1.eth[2].bitrate = 2200Mbps
*.switch1.eth[3].bitrate = 1900Mbps
*.switch1.eth[4].bitrate = 2200Mbps
*.switch1.eth[5].bitrate = 2100Mbps
*.host2.eth[0].bitrate = 1000Mbps
*.switch2.eth[0].bitrate = 1000Mbps
*.switch2.eth[1].bitrate = 1900Mbps
*.switch2.eth[2].bitrate = 2400Mbps
*.switch2.eth[3].bitrate = 1600Mbps
*.switch2.eth[4].bitrate = 1600Mbps
*.host3.eth[0].bitrate = 1000Mbps
*.switch3.eth[0].bitrate = 1000Mbps
*.switch3.eth[1].bitrate = 1600Mbps
*.switch3.eth[2].bitrate = 1800Mbps
*.switch3.eth[3].bitrate = 1500Mbps
*.switch3.eth[4].bitrate = 1600Mbps
*.switch3.eth[5].bitrate = 2000Mbps
*.switch3.eth[6].bitrate = 1600Mbps
*.switch3.eth[7].bitrate = 1500Mbps
*.switch3.eth[8].bitrate = 1700Mbps
*.host4.eth[0].bitrate = 1000Mbps
*.switch4.eth[0].bitrate = 1000Mbps
*.switch4.eth[1].bitrate = 2400Mbps
*.switch4.eth[2].bitrate = 1800Mbps
*.switch4.eth[3].bitrate = 2100Mbps
*.switch4.eth[4].bitrate = 1600Mbps
*.switch4.eth[5].bitrate = 1800Mbps
*.switch4.eth[6].bitrate = 1200Mbps
*.switch4.eth[7].bitrate = 1500Mbps
*.switch4.eth[8].bitrate = 2400Mbps
*.switch4.eth[9].bitrate = 2100Mbps
*.host5.eth[0].bitrate = 1000Mbps
*.switch5.eth[0].bitrate = 1000Mbps
*.switch5.eth[1].bitrate = 2300Mbps
*.switch5.eth[2].bitrate = 1900Mbps
*.switch5.eth[3].bitrate = 1500Mbps
*.switch5.eth[4].bitrate = 1800Mbps
*.switch5.eth[5].bitrate = 1500Mbps
*.switch5.eth[6].bitrate = 1500Mbps
*.switch5.eth[7].bitrate = 1500Mbps
*.switch5.eth[8].bitrate = 1900Mbps
*.switch5.eth[9].bitrate = 2200Mbps
*.switch5.eth[10].bitrate = 1200Mbps
*.host6.eth[0].bitrate = 1000Mbps
*.switch6.eth[0].bitrate = 1000Mbps
*.switch6.eth[1].bitrate = 1300Mbps
*.switch6.eth[2].bitrate = 2400Mbps
*.switch6.eth[3].bitrate = 1200Mbps
*.switch6.eth[4].bitrate = 1500Mbps
*.switch6.eth[5].bitrate = 1700Mbps
*.host7.eth[0].bitrate = 1000Mbps
*.switch7.eth[0].bitrate = 1000Mbps
*.switch7.eth[1].bitrate = 1700Mbps
*.switch7.eth[2].bitrate = 1600Mbps
*.switch7.eth[3].bitrate = 1500Mbps
*.switch7.eth[4].bitrate = 1600Mbps
*.switch7.eth[5].bitrate = 1900Mbps
*.switch7.eth[6].bitrate = 1200Mbps
*.switch7.eth[7].bitrate = 1500Mbps
*.host8.eth[0].bitrate = 1000Mbps
*.switch8.eth[0].bitrate = 1000Mbps
*.switch8.eth[1].bitrate = 2200Mbps
*.switch8.eth[2].bitrate = 2200Mbps
*.switch8.eth[3].bitrate = 2000Mbps
*.switch8.eth[4].bitrate = 2400Mbps
*.switch8.eth[5].bitrate = 1900Mbps
*.switch8.eth[6].bitrate = 1500Mbps
*.switch8.eth[7].bitrate = 2200Mbps
*.switch8.eth[8].bitrate = 1600Mbps
*.switch8.eth[9].bitrate = 1600Mbps
*.host9.eth[0].bitrate = 1000Mbps
*.switch9.eth[0].bitrate = 1000Mbps
*.switch9.eth[1].bitrate = 1600Mbps
*.switch9.eth[2].bitrate = 2100Mbps
*.switch9.eth[3].bitrate = 2200Mbps
*.switch9.eth[4].bitrate = 2300Mbps
*.switch9.eth[5].bitrate = 2100Mbps
*.switch9.eth[6].bitrate = 1700Mbps
*.switch9.eth[7].bitrate = 1600Mbps
*.host0.numApps = 4
*.host0.app[0].typename = "UdpSinkApp"
*.host0.app[0].io.localPort = 1000
*.host0.app[1].typename = "UdpSinkApp"
*.host0.app[1].io.localPort = 1001
*.host0.app[2].typename = "UdpSinkApp"
*.host0.app[2].io.localPort = 1002
*.host0.app[3].typename = "UdpSinkApp"
*.host0.app[3].io.localPort = 1003
*.host1.numApps = 2
*.host1.app[0].typename = "UdpSinkApp"
*.host1.app[0].io.localPort = 1000
*.host1.app[1].typename = "UdpSinkApp"
*.host1.app[1].io.localPort = 1001
*.host2.numApps = 21
*.host2.app[0].typename = "UdpSourceApp"
*.host2.app[0].io.destAddress = "host7"
*.host2.app[0].source.packetNameFormat = "%M-%m-%c"
*.host2.app[0].source.displayStringTextFormat = "sent %p pk (%l)"
*.host2.app[0].source.packetLength = 18B
*.host2.app[0].source.productionInterval = 1ms
*.host2.app[0].display-name = "type1_1"
*.host2.app[0].io.destPort = 1000
*.host2.app[1].typename = "UdpSourceApp"
*.host2.app[1].io.destAddress = "host0"
*.host2.app[1].source.packetNameFormat = "%M-%m-%c"
*.host2.app[1].source.displayStringTextFormat = "sent %p pk (%l)"
*.host2.app[1].source.packetLength = 20B
*.host2.app[1].source.productionInterval = 1ms
*.host2.app[1].display-name = "type1_2"
*.host2.app[1].io.destPort = 1001
*.host2.app[2].typename = "UdpBasicApp"
*.host2.app[2].destAddresses = "host7"
*.host2.app[2].source.packetNameFormat = "%M-%m-%c"
*.host2.app[2].source.displayStringTextFormat = "sent %p pk (%l)"
*.host2.app[2].messageLength = 16B
*.host2.app[2].sendInterval = 1ms
*.host2.app[2].startTime = 9ms
*.host2.app[2].stopTime = 34ms
*.host2.app[2].display-name = "type2_3"
*.host2.app[2].destPort = 1001
*.host2.app[3].typename = "UdpBasicApp"
*.host2.app[3].destAddresses = "host7"
*.host2.app[3].source.packetNameFormat = "%M-%m-%c"
*.host2.app[3].source.displayStringTextFormat = "sent %p pk (%l)"
*.host2.app[3].messageLength = 16B
*.host2.app[3].sendInterval = 1ms
*.host2.app[3].startTime = 37ms
*.host2.app[3].stopTime = 39ms
*.host2.app[3].display-name = "type2_3"
*.host2.app[3].destPort = 1001
*.host2.app[4].typename = "UdpBasicApp"
*.host2.app[4].destAddresses = "host7"
*.host2.app[4].source.packetNameFormat = "%M-%m-%c"
*.host2.app[4].source.displayStringTextFormat = "sent %p pk (%l)"
*.host2.app[4].messageLength = 16B
*.host2.app[4].sendInterval = 1ms
*.host2.app[4].startTime = 45ms
*.host2.app[4].stopTime = 49ms
*.host2.app[4].display-name = "type2_3"
*.host2.app[4].destPort = 1001
*.host2.app[5].typename = "UdpBasicApp"
*.host2.app[5].destAddresses = "host7"
*.host2.app[5].source.packetNameFormat = "%M-%m-%c"
*.host2.app[5].source.displayStringTextFormat = "sent %p pk (%l)"
*.host2.app[5].messageLength = 16B
*.host2.app[5].sendInterval = 1ms
*.host2.app[5].startTime = 64ms
*.host2.app[5].stopTime = 73ms
*.host2.app[5].display-name = "type2_3"
*.host2.app[5].destPort = 1001
*.host2.app[6].typename = "UdpBasicApp"
*.host2.app[6].destAddresses = "host7"
*.host2.app[6].source.packetNameFormat = "%M-%m-%c"
*.host2.app[6].source.displayStringTextFormat = "sent %p pk (%l)"
*.host2.app[6].messageLength = 16B
*.host2.app[6].sendInterval = 1ms
*.host2.app[6].startTime = 86ms
*.host2.app[6].stopTime = 94ms
*.host2.app[6].display-name = "type2_3"
*.host2.app[6].destPort = 1001
*.host2.app[7].typename = "UdpBasicApp"
*.host2.app[7].destAddresses = "host0"
*.host2.app[7].source.packetNameFormat = "%M-%m-%c"
*.host2.app[7].source.displayStringTextFormat = "sent %p pk (%l)"
*.host2.app[7].messageLength = 21B
*.host2.app[7].sendInterval = 1ms
*.host2.app[7].startTime = 4ms
*.host2.app[7].stopTime = 6ms
*.host2.app[7].display-name = "type2_4"
*.host2.app[7].destPort = 1002
*.host2.app[8].typename = "UdpBasicApp"
*.host2.app[8].destAddresses = "host0"
*.host2.app[8].source.packetNameFormat = "%M-%m-%c"
*.host2.app[8].source.displayStringTextFormat = "sent %p pk (%l)"
*.host2.app[8].messageLength = 21B
*.host2.app[8].sendInterval = 1ms
*.host2.app[8].startTime = 10ms
*.host2.app[8].stopTime = 11ms
*.host2.app[8].display-name = "type2_4"
*.host2.app[8].destPort = 1002
*.host2.app[9].typename = "UdpBasicApp"
*.host2.app[9].destAddresses = "host0"
*.host2.app[9].source.packetNameFormat = "%M-%m-%c"
*.host2.app[9].source.displayStringTextFormat = "sent %p pk (%l)"
*.host2.app[9].messageLength = 21B
*.host2.app[9].sendInterval = 1ms
*.host2.app[9].startTime = 21ms
*.host2.app[9].stopTime = 42ms
*.host2.app[9].display-name = "type2_4"
*.host2.app[9].destPort = 1002
*.host2.app[10].typename = "UdpBasicApp"
*.host2.app[10].destAddresses = "host0"
*.host2.app[10].source.packetNameFormat = "%M-%m-%c"
*.host2.app[10].source.displayStringTextFormat = "sent %p pk (%l)"
*.host2.app[10].messageLength = 21B
*.host2.app[10].sendInterval = 1ms
*.host2.app[10].startTime = 52ms
*.host2.app[10].stopTime = 64ms
*.host2.app[10].display-name = "type2_4"
*.host2.app[10].destPort = 1002
*.host2.app[11].typename = "UdpBasicApp"
*.host2.app[11].destAddresses = "host0"
*.host2.app[11].source.packetNameFormat = "%M-%m-%c"
*.host2.app[11].source.displayStringTextFormat = "sent %p pk (%l)"
*.host2.app[11].messageLength = 21B
*.host2.app[11].sendInterval = 1ms
*.host2.app[11].startTime = 80ms
*.host2.app[11].stopTime = 84ms
*.host2.app[11].display-name = "type2_4"
*.host2.app[11].destPort = 1002
*.host2.app[12].typename = "UdpBasicApp"
*.host2.app[12].destAddresses = "host0"
*.host2.app[12].source.packetNameFormat = "%M-%m-%c"
*.host2.app[12].source.displayStringTextFormat = "sent %p pk (%l)"
*.host2.app[12].messageLength = 21B
*.host2.app[12].sendInterval = 1ms
*.host2.app[12].startTime = 87ms
*.host2.app[12].stopTime = 88ms
*.host2.app[12].display-name = "type2_4"
*.host2.app[12].destPort = 1002
*.host2.app[13].typename = "UdpBasicApp"
*.host2.app[13].destAddresses = "host0"
*.host2.app[13].source.packetNameFormat = "%M-%m-%c"
*.host2.app[13].source.displayStringTextFormat = "sent %p pk (%l)"
*.host2.app[13].messageLength = 21B
*.host2.app[13].sendInterval = 1ms
*.host2.app[13].startTime = 99ms
*.host2.app[13].stopTime = 100ms
*.host2.app[13].display-name = "type2_4"
*.host2.app[13].destPort = 1002
*.host2.app[14].typename = "UdpBasicApp"
*.host2.app[14].destAddresses = "host8"
*.host2.app[14].source.packetNameFormat = "%M-%m-%c"
*.host2.app[14].source.displayStringTextFormat = "sent %p pk (%l)"
*.host2.app[14].messageLength = 18B
*.host2.app[14].sendInterval = 1ms
*.host2.app[14].startTime = 1ms
*.host2.app[14].stopTime = 13ms
*.host2.app[14].display-name = "type2_6"
*.host2.app[14].destPort = 1002
*.host2.app[15].typename = "UdpBasicApp"
*.host2.app[15].destAddresses = "host8"
*.host2.app[15].source.packetNameFormat = "%M-%m-%c"
*.host2.app[15].source.displayStringTextFormat = "sent %p pk (%l)"
*.host2.app[15].messageLength = 18B
*.host2.app[15].sendInterval = 1ms
*.host2.app[15].startTime = 15ms
*.host2.app[15].stopTime = 24ms
*.host2.app[15].display-name = "type2_6"
*.host2.app[15].destPort = 1002
*.host2.app[16].typename = "UdpBasicApp"
*.host2.app[16].destAddresses = "host8"
*.host2.app[16].source.packetNameFormat = "%M-%m-%c"
*.host2.app[16].source.displayStringTextFormat = "sent %p pk (%l)"
*.host2.app[16].messageLength = 18B
*.host2.app[16].sendInterval = 1ms
*.host2.app[16].startTime = 33ms
*.host2.app[16].stopTime = 35ms
*.host2.app[16].display-name = "type2_6"
*.host2.app[16].destPort = 1002
*.host2.app[17].typename = "UdpBasicApp"
*.host2.app[17].destAddresses = "host8"
*.host2.app[17].source.packetNameFormat = "%M-%m-%c"
*.host2.app[17].source.displayStringTextFormat = "sent %p pk (%l)"
*.host2.app[17].messageLength = 18B
*.host2.app[17].sendInterval = 1ms
*.host2.app[17].startTime = 52ms
*.host2.app[17].stopTime = 54ms
*.host2.app[17].display-name = "type2_6"
*.host2.app[17].destPort = 1002
*.host2.app[18].typename = "UdpBasicApp"
*.host2.app[18].destAddresses = "host8"
*.host2.app[18].source.packetNameFormat = "%M-%m-%c"
*.host2.app[18].source.displayStringTextFormat = "sent %p pk (%l)"
*.host2.app[18].messageLength = 18B
*.host2.app[18].sendInterval = 1ms
*.host2.app[18].startTime = 56ms
*.host2.app[18].stopTime = 65ms
*.host2.app[18].display-name = "type2_6"
*.host2.app[18].destPort = 1002
*.host2.app[19].typename = "UdpBasicApp"
*.host2.app[19].destAddresses = "host8"
*.host2.app[19].source.packetNameFormat = "%M-%m-%c"
*.host2.app[19].source.displayStringTextFormat = "sent %p pk (%l)"
*.host2.app[19].messageLength = 18B
*.host2.app[19].sendInterval = 1ms
*.host2.app[19].startTime = 68ms
*.host2.app[19].stopTime = 84ms
*.host2.app[19].display-name = "type2_6"
*.host2.app[19].destPort = 1002
*.host2.app[20].typename = "UdpBasicApp"
*.host2.app[20].destAddresses = "host8"
*.host2.app[20].source.packetNameFormat = "%M-%m-%c"
*.host2.app[20].source.displayStringTextFormat = "sent %p pk (%l)"
*.host2.app[20].messageLength = 18B
*.host2.app[20].sendInterval = 1ms
*.host2.app[20].startTime = 86ms
*.host2.app[20].stopTime = 89ms
*.host2.app[20].display-name = "type2_6"
*.host2.app[20].destPort = 1002
*.host3.numApps = 19
*.host3.app[0].typename = "UdpBasicApp"
*.host3.app[0].destAddresses = "host9"
*.host3.app[0].source.packetNameFormat = "%M-%m-%c"
*.host3.app[0].source.displayStringTextFormat = "sent %p pk (%l)"
*.host3.app[0].messageLength = 17B
*.host3.app[0].sendInterval = 1ms
*.host3.app[0].startTime = 11ms
*.host3.app[0].stopTime = 31ms
*.host3.app[0].display-name = "type2_0"
*.host3.app[0].destPort = 1000
*.host3.app[1].typename = "UdpBasicApp"
*.host3.app[1].destAddresses = "host9"
*.host3.app[1].source.packetNameFormat = "%M-%m-%c"
*.host3.app[1].source.displayStringTextFormat = "sent %p pk (%l)"
*.host3.app[1].messageLength = 17B
*.host3.app[1].sendInterval = 1ms
*.host3.app[1].startTime = 38ms
*.host3.app[1].stopTime = 45ms
*.host3.app[1].display-name = "type2_0"
*.host3.app[1].destPort = 1000
*.host3.app[2].typename = "UdpBasicApp"
*.host3.app[2].destAddresses = "host9"
*.host3.app[2].source.packetNameFormat = "%M-%m-%c"
*.host3.app[2].source.displayStringTextFormat = "sent %p pk (%l)"
*.host3.app[2].messageLength = 17B
*.host3.app[2].sendInterval = 1ms
*.host3.app[2].startTime = 56ms
*.host3.app[2].stopTime = 58ms
*.host3.app[2].display-name = "type2_0"
*.host3.app[2].destPort = 1000
*.host3.app[3].typename = "UdpBasicApp"
*.host3.app[3].destAddresses = "host9"
*.host3.app[3].source.packetNameFormat = "%M-%m-%c"
*.host3.app[3].source.displayStringTextFormat = "sent %p pk (%l)"
*.host3.app[3].messageLength = 17B
*.host3.app[3].sendInterval = 1ms
*.host3.app[3].startTime = 66ms
*.host3.app[3].stopTime = 69ms
*.host3.app[3].display-name = "type2_0"
*.host3.app[3].destPort = 1000
*.host3.app[4].typename = "UdpBasicApp"
*.host3.app[4].destAddresses = "host9"
*.host3.app[4].source.packetNameFormat = "%M-%m-%c"
*.host3.app[4].source.displayStringTextFormat = "sent %p pk (%l)"
*.host3.app[4].messageLength = 17B
*.host3.app[4].sendInterval = 1ms
*.host3.app[4].startTime = 74ms
*.host3.app[4].stopTime = 77ms
*.host3.app[4].display-name = "type2_0"
*.host3.app[4].destPort = 1000
*.host3.app[5].typename = "UdpBasicApp"
*.host3.app[5].destAddresses = "host9"
*.host3.app[5].source.packetNameFormat = "%M-%m-%c"
*.host3.app[5].source.displayStringTextFormat = "sent %p pk (%l)"
*.host3.app[5].messageLength = 17B
*.host3.app[5].sendInterval = 1ms
*.host3.app[5].startTime = 84ms
*.host3.app[5].stopTime = 85ms
*.host3.app[5].display-name = "type2_0"
*.host3.app[5].destPort = 1000
*.host3.app[6].typename = "UdpBasicApp"
*.host3.app[6].destAddresses = "host9"
*.host3.app[6].source.packetNameFormat = "%M-%m-%c"
*.host3.app[6].source.displayStringTextFormat = "sent %p pk (%l)"
*.host3.app[6].messageLength = 17B
*.host3.app[6].sendInterval = 1ms
*.host3.app[6].startTime = 88ms
*.host3.app[6].stopTime = 90ms
*.host3.app[6].display-name = "type2_0"
*.host3.app[6].destPort = 1000
*.host3.app[7].typename = "UdpBasicApp"
*.host3.app[7].destAddresses = "host4"
*.host3.app[7].source.packetNameFormat = "%M-%m-%c"
*.host3.app[7].source.displayStringTextFormat = "sent %p pk (%l)"
*.host3.app[7].messageLength = 16B
*.host3.app[7].sendInterval = 1ms
*.host3.app[7].startTime = 24ms
*.host3.app[7].stopTime = 29ms
*.host3.app[7].display-name = "type2_7"
*.host3.app[7].destPort = 1000
*.host3.app[8].typename = "UdpBasicApp"
*.host3.app[8].destAddresses = "host4"
*.host3.app[8].source.packetNameFormat = "%M-%m-%c"
*.host3.app[8].source.displayStringTextFormat = "sent %p pk (%l)"
*.host3.app[8].messageLength = 16B
*.host3.app[8].sendInterval = 1ms
*.host3.app[8].startTime = 38ms
*.host3.app[8].stopTime = 63ms
*.host3.app[8].display-name = "type2_7"
*.host3.app[8].destPort = 1000
*.host3.app[9].typename = "UdpBasicApp"
*.host3.app[9].destAddresses = "host4"
*.host3.app[9].source.packetNameFormat = "%M-%m-%c"
*.host3.app[9].source.displayStringTextFormat = "sent %p pk (%l)"
*.host3.app[9].messageLength = 16B
*.host3.app[9].sendInterval = 1ms
*.host3.app[9].startTime = 83ms
*.host3.app[9].stopTime = 87ms
*.host3.app[9].display-name = "type2_7"
*.host3.app[9].destPort = 1000
*.host3.app[10].typename = "UdpBasicApp"
*.host3.app[10].destAddresses = "host4"
*.host3.app[10].source.packetNameFormat = "%M-%m-%c"
*.host3.app[10].source.displayStringTextFormat = "sent %p pk (%l)"
*.host3.app[10].messageLength = 16B
*.host3.app[10].sendInterval = 1ms
*.host3.app[10].startTime = 89ms
*.host3.app[10].stopTime = 100ms
*.host3.app[10].display-name = "type2_7"
*.host3.app[10].destPort = 1000
*.host3.app[11].typename = "UdpSinkApp"
*.host3.app[11].io.localPort = 1000
*.host3.app[12].typename = "UdpBasicApp"
*.host3.app[12].destAddresses = "host0"
*.host3.app[12].source.packetNameFormat = "%M-%m-%c"
*.host3.app[12].source.displayStringTextFormat = "sent %p pk (%l)"
*.host3.app[12].messageLength = 16B
*.host3.app[12].sendInterval = 1ms
*.host3.app[12].startTime = 3ms
*.host3.app[12].stopTime = 6ms
*.host3.app[12].display-name = "type2_9"
*.host3.app[12].destPort = 1003
*.host3.app[13].typename = "UdpBasicApp"
*.host3.app[13].destAddresses = "host0"
*.host3.app[13].source.packetNameFormat = "%M-%m-%c"
*.host3.app[13].source.displayStringTextFormat = "sent %p pk (%l)"
*.host3.app[13].messageLength = 16B
*.host3.app[13].sendInterval = 1ms
*.host3.app[13].startTime = 9ms
*.host3.app[13].stopTime = 30ms
*.host3.app[13].display-name = "type2_9"
*.host3.app[13].destPort = 1003
*.host3.app[14].typename = "UdpBasicApp"
*.host3.app[14].destAddresses = "host0"
*.host3.app[14].source.packetNameFormat = "%M-%m-%c"
*.host3.app[14].source.displayStringTextFormat = "sent %p pk (%l)"
*.host3.app[14].messageLength = 16B
*.host3.app[14].sendInterval = 1ms
*.host3.app[14].startTime = 37ms
*.host3.app[14].stopTime = 39ms
*.host3.app[14].display-name = "type2_9"
*.host3.app[14].destPort = 1003
*.host3.app[15].typename = "UdpBasicApp"
*.host3.app[15].destAddresses = "host0"
*.host3.app[15].source.packetNameFormat = "%M-%m-%c"
*.host3.app[15].source.displayStringTextFormat = "sent %p pk (%l)"
*.host3.app[15].messageLength = 16B
*.host3.app[15].sendInterval = 1ms
*.host3.app[15].startTime = 42ms
*.host3.app[15].stopTime = 52ms
*.host3.app[15].display-name = "type2_9"
*.host3.app[15].destPort = 1003
*.host3.app[16].typename = "UdpBasicApp"
*.host3.app[16].destAddresses = "host0"
*.host3.app[16].source.packetNameFormat = "%M-%m-%c"
*.host3.app[16].source.displayStringTextFormat = "sent %p pk (%l)"
*.host3.app[16].messageLength = 16B
*.host3.app[16].sendInterval = 1ms
*.host3.app[16].startTime = 61ms
*.host3.app[16].stopTime = 64ms
*.host3.app[16].display-name = "type2_9"
*.host3.app[16].destPort = 1003
*.host3.app[17].typename = "UdpBasicApp"
*.host3.app[17].destAddresses = "host0"
*.host3.app[17].source.packetNameFormat = "%M-%m-%c"
*.host3.app[17].source.displayStringTextFormat = "sent %p pk (%l)"
*.host3.app[17].messageLength = 16B
*.host3.app[17].sendInterval = 1ms
*.host3.app[17].startTime = 88ms
*.host3.app[17].stopTime = 91ms
*.host3.app[17].display-name = "type2_9"
*.host3.app[17].destPort = 1003
*.host3.app[18].typename = "UdpBasicApp"
*.host3.app[18].destAddresses = "host0"
*.host3.app[18].source.packetNameFormat = "%M-%m-%c"
*.host3.app[18].source.displayStringTextFormat = "sent %p pk (%l)"
*.host3.app[18].messageLength = 16B
*.host3.app[18].sendInterval = 1ms
*.host3.app[18].startTime = 95ms
*.host3.app[18].stopTime = 100ms
*.host3.app[18].display-name = "type2_9"
*.host3.app[18].destPort = 1003
*.host4.numApps = 8
*.host4.app[0].typename = "UdpBasicApp"
*.host4.app[0].destAddresses = "host8"
*.host4.app[0].source.packetNameFormat = "%M-%m-%c"
*.host4.app[0].source.displayStringTextFormat = "sent %p pk (%l)"
*.host4.app[0].messageLength = 12B
*.host4.app[0].sendInterval = 1ms
*.host4.app[0].startTime = 2ms
*.host4.app[0].stopTime = 7ms
*.host4.app[0].display-name = "type2_1"
*.host4.app[0].destPort = 1000
*.host4.app[1].typename = "UdpBasicApp"
*.host4.app[1].destAddresses = "host8"
*.host4.app[1].source.packetNameFormat = "%M-%m-%c"
*.host4.app[1].source.displayStringTextFormat = "sent %p pk (%l)"
*.host4.app[1].messageLength = 12B
*.host4.app[1].sendInterval = 1ms
*.host4.app[1].startTime = 14ms
*.host4.app[1].stopTime = 26ms
*.host4.app[1].display-name = "type2_1"
*.host4.app[1].destPort = 1000
*.host4.app[2].typename = "UdpBasicApp"
*.host4.app[2].destAddresses = "host8"
*.host4.app[2].source.packetNameFormat = "%M-%m-%c"
*.host4.app[2].source.displayStringTextFormat = "sent %p pk (%l)"
*.host4.app[2].messageLength = 12B
*.host4.app[2].sendInterval = 1ms
*.host4.app[2].startTime = 27ms
*.host4.app[2].stopTime = 39ms
*.host4.app[2].display-name = "type2_1"
*.host4.app[2].destPort = 1000
*.host4.app[3].typename = "UdpBasicApp"
*.host4.app[3].destAddresses = "host8"
*.host4.app[3].source.packetNameFormat = "%M-%m-%c"
*.host4.app[3].source.displayStringTextFormat = "sent %p pk (%l)"
*.host4.app[3].messageLength = 12B
*.host4.app[3].sendInterval = 1ms
*.host4.app[3].startTime = 47ms
*.host4.app[3].stopTime = 53ms
*.host4.app[3].display-name = "type2_1"
*.host4.app[3].destPort = 1000
*.host4.app[4].typename = "UdpBasicApp"
*.host4.app[4].destAddresses = "host8"
*.host4.app[4].source.packetNameFormat = "%M-%m-%c"
*.host4.app[4].source.displayStringTextFormat = "sent %p pk (%l)"
*.host4.app[4].messageLength = 12B
*.host4.app[4].sendInterval = 1ms
*.host4.app[4].startTime = 59ms
*.host4.app[4].stopTime = 64ms
*.host4.app[4].display-name = "type2_1"
*.host4.app[4].destPort = 1000
*.host4.app[5].typename = "UdpBasicApp"
*.host4.app[5].destAddresses = "host8"
*.host4.app[5].source.packetNameFormat = "%M-%m-%c"
*.host4.app[5].source.displayStringTextFormat = "sent %p pk (%l)"
*.host4.app[5].messageLength = 12B
*.host4.app[5].sendInterval = 1ms
*.host4.app[5].startTime = 83ms
*.host4.app[5].stopTime = 85ms
*.host4.app[5].display-name = "type2_1"
*.host4.app[5].destPort = 1000
*.host4.app[6].typename = "UdpBasicApp"
*.host4.app[6].destAddresses = "host8"
*.host4.app[6].source.packetNameFormat = "%M-%m-%c"
*.host4.app[6].source.displayStringTextFormat = "sent %p pk (%l)"
*.host4.app[6].messageLength = 12B
*.host4.app[6].sendInterval = 1ms
*.host4.app[6].startTime = 93ms
*.host4.app[6].stopTime = 97ms
*.host4.app[6].display-name = "type2_1"
*.host4.app[6].destPort = 1000
*.host4.app[7].typename = "UdpSinkApp"
*.host4.app[7].io.localPort = 1000
*.host5.numApps = 8
*.host5.app[0].typename = "UdpBasicApp"
*.host5.app[0].destAddresses = "host1"
*.host5.app[0].source.packetNameFormat = "%M-%m-%c"
*.host5.app[0].source.displayStringTextFormat = "sent %p pk (%l)"
*.host5.app[0].messageLength = 21B
*.host5.app[0].sendInterval = 1ms
*.host5.app[0].startTime = 1ms
*.host5.app[0].stopTime = 4ms
*.host5.app[0].display-name = "type2_5"
*.host5.app[0].destPort = 1000
*.host5.app[1].typename = "UdpBasicApp"
*.host5.app[1].destAddresses = "host1"
*.host5.app[1].source.packetNameFormat = "%M-%m-%c"
*.host5.app[1].source.displayStringTextFormat = "sent %p pk (%l)"
*.host5.app[1].messageLength = 21B
*.host5.app[1].sendInterval = 1ms
*.host5.app[1].startTime = 14ms
*.host5.app[1].stopTime = 22ms
*.host5.app[1].display-name = "type2_5"
*.host5.app[1].destPort = 1000
*.host5.app[2].typename = "UdpBasicApp"
*.host5.app[2].destAddresses = "host1"
*.host5.app[2].source.packetNameFormat = "%M-%m-%c"
*.host5.app[2].source.displayStringTextFormat = "sent %p pk (%l)"
*.host5.app[2].messageLength = 21B
*.host5.app[2].sendInterval = 1ms
*.host5.app[2].startTime = 24ms
*.host5.app[2].stopTime = 29ms
*.host5.app[2].display-name = "type2_5"
*.host5.app[2].destPort = 1000
*.host5.app[3].typename = "UdpBasicApp"
*.host5.app[3].destAddresses = "host1"
*.host5.app[3].source.packetNameFormat = "%M-%m-%c"
*.host5.app[3].source.displayStringTextFormat = "sent %p pk (%l)"
*.host5.app[3].messageLength = 21B
*.host5.app[3].sendInterval = 1ms
*.host5.app[3].startTime = 46ms
*.host5.app[3].stopTime = 49ms
*.host5.app[3].display-name = "type2_5"
*.host5.app[3].destPort = 1000
*.host5.app[4].typename = "UdpBasicApp"
*.host5.app[4].destAddresses = "host1"
*.host5.app[4].source.packetNameFormat = "%M-%m-%c"
*.host5.app[4].source.displayStringTextFormat = "sent %p pk (%l)"
*.host5.app[4].messageLength = 21B
*.host5.app[4].sendInterval = 1ms
*.host5.app[4].startTime = 56ms
*.host5.app[4].stopTime = 61ms
*.host5.app[4].display-name = "type2_5"
*.host5.app[4].destPort = 1000
*.host5.app[5].typename = "UdpBasicApp"
*.host5.app[5].destAddresses = "host1"
*.host5.app[5].source.packetNameFormat = "%M-%m-%c"
*.host5.app[5].source.displayStringTextFormat = "sent %p pk (%l)"
*.host5.app[5].messageLength = 21B
*.host5.app[5].sendInterval = 1ms
*.host5.app[5].startTime = 63ms
*.host5.app[5].stopTime = 71ms
*.host5.app[5].display-name = "type2_5"
*.host5.app[5].destPort = 1000
*.host5.app[6].typename = "UdpBasicApp"
*.host5.app[6].destAddresses = "host1"
*.host5.app[6].source.packetNameFormat = "%M-%m-%c"
*.host5.app[6].source.displayStringTextFormat = "sent %p pk (%l)"
*.host5.app[6].messageLength = 21B
*.host5.app[6].sendInterval = 1ms
*.host5.app[6].startTime = 72ms
*.host5.app[6].stopTime = 88ms
*.host5.app[6].display-name = "type2_5"
*.host5.app[6].destPort = 1000
*.host5.app[7].typename = "UdpBasicApp"
*.host5.app[7].destAddresses = "host1"
*.host5.app[7].source.packetNameFormat = "%M-%m-%c"
*.host5.app[7].source.displayStringTextFormat = "sent %p pk (%l)"
*.host5.app[7].messageLength = 21B
*.host5.app[7].sendInterval = 1ms
*.host5.app[7].startTime = 89ms
*.host5.app[7].stopTime = 95ms
*.host5.app[7].display-name = "type2_5"
*.host5.app[7].destPort = 1000
*.host6.numApps = 2
*.host6.app[0].typename = "UdpSourceApp"
*.host6.app[0].io.destAddress = "host0"
*.host6.app[0].source.packetNameFormat = "%M-%m-%c"
*.host6.app[0].source.displayStringTextFormat = "sent %p pk (%l)"
*.host6.app[0].source.packetLength = 22B
*.host6.app[0].source.productionInterval = 1ms
*.host6.app[0].display-name = "type1_0"
*.host6.app[0].io.destPort = 1000
*.host6.app[1].typename = "UdpSinkApp"
*.host6.app[1].io.localPort = 1000
*.host7.numApps = 7
*.host7.app[0].typename = "UdpSinkApp"
*.host7.app[0].io.localPort = 1000
*.host7.app[1].typename = "UdpSinkApp"
*.host7.app[1].io.localPort = 1001
*.host7.app[2].typename = "UdpBasicApp"
*.host7.app[2].destAddresses = "host3"
*.host7.app[2].source.packetNameFormat = "%M-%m-%c"
*.host7.app[2].source.displayStringTextFormat = "sent %p pk (%l)"
*.host7.app[2].messageLength = 22B
*.host7.app[2].sendInterval = 1ms
*.host7.app[2].startTime = 11ms
*.host7.app[2].stopTime = 12ms
*.host7.app[2].display-name = "type2_8"
*.host7.app[2].destPort = 1000
*.host7.app[3].typename = "UdpBasicApp"
*.host7.app[3].destAddresses = "host3"
*.host7.app[3].source.packetNameFormat = "%M-%m-%c"
*.host7.app[3].source.displayStringTextFormat = "sent %p pk (%l)"
*.host7.app[3].messageLength = 22B
*.host7.app[3].sendInterval = 1ms
*.host7.app[3].startTime = 13ms
*.host7.app[3].stopTime = 14ms
*.host7.app[3].display-name = "type2_8"
*.host7.app[3].destPort = 1000
*.host7.app[4].typename = "UdpBasicApp"
*.host7.app[4].destAddresses = "host3"
*.host7.app[4].source.packetNameFormat = "%M-%m-%c"
*.host7.app[4].source.displayStringTextFormat = "sent %p pk (%l)"
*.host7.app[4].messageLength = 22B
*.host7.app[4].sendInterval = 1ms
*.host7.app[4].startTime = 40ms
*.host7.app[4].stopTime = 57ms
*.host7.app[4].display-name = "type2_8"
*.host7.app[4].destPort = 1000
*.host7.app[5].typename = "UdpBasicApp"
*.host7.app[5].destAddresses = "host3"
*.host7.app[5].source.packetNameFormat = "%M-%m-%c"
*.host7.app[5].source.displayStringTextFormat = "sent %p pk (%l)"
*.host7.app[5].messageLength = 22B
*.host7.app[5].sendInterval = 1ms
*.host7.app[5].startTime = 68ms
*.host7.app[5].stopTime = 72ms
*.host7.app[5].display-name = "type2_8"
*.host7.app[5].destPort = 1000
*.host7.app[6].typename = "UdpBasicApp"
*.host7.app[6].destAddresses = "host3"
*.host7.app[6].source.packetNameFormat = "%M-%m-%c"
*.host7.app[6].source.displayStringTextFormat = "sent %p pk (%l)"
*.host7.app[6].messageLength = 22B
*.host7.app[6].sendInterval = 1ms
*.host7.app[6].startTime = 78ms
*.host7.app[6].stopTime = 97ms
*.host7.app[6].display-name = "type2_8"
*.host7.app[6].destPort = 1000
*.host8.numApps = 12
*.host8.app[0].typename = "UdpSinkApp"
*.host8.app[0].io.localPort = 1000
*.host8.app[1].typename = "UdpSinkApp"
*.host8.app[1].io.localPort = 1001
*.host8.app[2].typename = "UdpSinkApp"
*.host8.app[2].io.localPort = 1002
*.host8.app[3].typename = "UdpBasicApp"
*.host8.app[3].destAddresses = "host1"
*.host8.app[3].source.packetNameFormat = "%M-%m-%c"
*.host8.app[3].source.displayStringTextFormat = "sent %p pk (%l)"
*.host8.app[3].messageLength = 22B
*.host8.app[3].sendInterval = 1ms
*.host8.app[3].startTime = 17ms
*.host8.app[3].stopTime = 19ms
*.host8.app[3].display-name = "type2_11"
*.host8.app[3].destPort = 1001
*.host8.app[4].typename = "UdpBasicApp"
*.host8.app[4].destAddresses = "host1"
*.host8.app[4].source.packetNameFormat = "%M-%m-%c"
*.host8.app[4].source.displayStringTextFormat = "sent %p pk (%l)"
*.host8.app[4].messageLength = 22B
*.host8.app[4].sendInterval = 1ms
*.host8.app[4].startTime = 22ms
*.host8.app[4].stopTime = 27ms
*.host8.app[4].display-name = "type2_11"
*.host8.app[4].destPort = 1001
*.host8.app[5].typename = "UdpBasicApp"
*.host8.app[5].destAddresses = "host1"
*.host8.app[5].source.packetNameFormat = "%M-%m-%c"
*.host8.app[5].source.displayStringTextFormat = "sent %p pk (%l)"