[General]
network = TSN_multipath
sim-time-limit = 10ms
*.macForwardingTableConfigurator.typename = ""
*.*.hasStreamRedundancy = true
*.*.bridging.streamRelay.typename = "StreamRelayLayer"
*.*.bridging.streamCoder.typename = "StreamCoderLayer"
*.streamRedundancyConfigurator.typename = "StreamRedundancyConfigurator"
*.host0.eth[0].bitrate = 1000Mbps
*.switch0.eth[0].bitrate = 1000Mbps
*.switch0.eth[1].bitrate = 2300Mbps
*.switch0.eth[2].bitrate = 1300Mbps
*.switch0.eth[3].bitrate = 2200Mbps
*.switch0.eth[4].bitrate = 1400Mbps
*.switch0.eth[5].bitrate = 1400Mbps
*.switch0.eth[6].bitrate = 1300Mbps
*.switch0.eth[7].bitrate = 1400Mbps
*.switch0.eth[8].bitrate = 1200Mbps
*.switch0.eth[9].bitrate = 1700Mbps
*.switch0.eth[10].bitrate = 2000Mbps
*.switch0.eth[11].bitrate = 2100Mbps
*.switch0.eth[12].bitrate = 1300Mbps
*.switch0.eth[13].bitrate = 1500Mbps
*.host1.eth[0].bitrate = 1000Mbps
*.switch1.eth[0].bitrate = 1000Mbps
*.switch1.eth[1].bitrate = 2300Mbps
*.switch1.eth[2].bitrate = 1200Mbps
*.switch1.eth[3].bitrate = 2300Mbps
*.switch1.eth[4].bitrate = 1900Mbps
*.switch1.eth[5].bitrate = 1500Mbps
*.switch1.eth[6].bitrate = 2400Mbps
*.switch1.eth[7].bitrate = 1200Mbps
*.switch1.eth[8].bitrate = 2100Mbps
*.switch1.eth[9].bitrate = 2100Mbps
*.switch1.eth[10].bitrate = 1600Mbps
*.switch1.eth[11].bitrate = 1600Mbps
*.host2.eth[0].bitrate = 1000Mbps
*.switch2.eth[0].bitrate = 1000Mbps
*.switch2.eth[1].bitrate = 2300Mbps
*.switch2.eth[2].bitrate = 2100Mbps
*.switch2.eth[3].bitrate = 2400Mbps
*.switch2.eth[4].bitrate = 1700Mbps
*.switch2.eth[5].bitrate = 1700Mbps
*.switch2.eth[6].bitrate = 1900Mbps
*.switch2.eth[7].bitrate = 1700Mbps
*.switch2.eth[8].bitrate = 2200Mbps
*.switch2.eth[9].bitrate = 2200Mbps
*.switch2.eth[10].bitrate = 2200Mbps
*.switch2.eth[11].bitrate = 1400Mbps
*.host3.eth[0].bitrate = 1000Mbps
*.switch3.eth[0].bitrate = 1000Mbps
*.switch3.eth[1].bitrate = 1300Mbps
*.switch3.eth[2].bitrate = 1900Mbps
*.switch3.eth[3].bitrate = 1600Mbps
*.switch3.eth[4].bitrate = 1700Mbps
*.switch3.eth[5].bitrate = 1200Mbps
*.switch3.eth[6].bitrate = 1500Mbps
*.switch3.eth[7].bitrate = 2100Mbps
*.switch3.eth[8].bitrate = 1700Mbps
*.switch3.eth[9].bitrate = 1300Mbps
*.switch3.eth[10].bitrate = 2200Mbps
*.switch3.eth[11].bitrate = 1800Mbps
*.switch3.eth[12].bitrate = 1800Mbps
*.host4.eth[0].bitrate = 1000Mbps
*.switch4.eth[0].bitrate = 1000Mbps
*.switch4.eth[1].bitrate = 2200Mbps
*.switch4.eth[2].bitrate = 2400Mbps
*.switch4.eth[3].bitrate = 1700Mbps
*.switch4.eth[4].bitrate = 2200Mbps
*.switch4.eth[5].bitrate = 1300Mbps
*.switch4.eth[6].bitrate = 2300Mbps
*.switch4.eth[7].bitrate = 1500Mbps
*.switch4.eth[8].bitrate = 1700Mbps
*.switch4.eth[9].bitrate = 1900Mbps
*.switch4.eth[10].bitrate = 2000Mbps
*.switch4.eth[11].bitrate = 2300Mbps
*.switch4.eth[12].bitrate = 2300Mbps
*.host5.eth[0].bitrate = 1000Mbps
*.switch5.eth[0].bitrate = 1000Mbps
*.switch5.eth[1].bitrate = 1400Mbps
*.switch5.eth[2].bitrate = 1500Mbps
*.switch5.eth[3].bitrate = 1200Mbps
*.switch5.eth[4].bitrate = 2300Mbps
*.switch5.eth[5].bitrate = 2000Mbps
*.switch5.eth[6].bitrate = 2200Mbps
*.switch5.eth[7].bitrate = 2200Mbps
*.switch5.eth[8].bitrate = 2000Mbps
*.switch5.eth[9].bitrate = 1500Mbps
*.switch5.eth[10].bitrate = 1300Mbps
*.switch5.eth[11].bitrate = 2400Mbps
*.switch5.eth[12].bitrate = 1400Mbps
*.host6.eth[0].bitrate = 1000Mbps
*.switch6.eth[0].bitrate = 1000Mbps
*.switch6.eth[1].bitrate = 1700Mbps
*.switch6.eth[2].bitrate = 1500Mbps
*.switch6.eth[3].bitrate = 1500Mbps
*.switch6.eth[4].bitrate = 1800Mbps
*.switch6.eth[5].bitrate = 2300Mbps
*.switch6.eth[6].bitrate = 1800Mbps
*.switch6.eth[7].bitrate = 1300Mbps
*.host7.eth[0].bitrate = 1000Mbps
*.switch7.eth[0].bitrate = 1000Mbps
*.switch7.eth[1].bitrate = 1400Mbps
*.switch7.eth[2].bitrate = 2400Mbps
*.switch7.eth[3].bitrate = 1700Mbps
*.switch7.eth[4].bitrate = 1500Mbps
*.switch7.eth[5].bitrate = 1700Mbps
*.switch7.eth[6].bitrate = 1300Mbps
*.switch7.eth[7].bitrate = 1800Mbps
*.switch7.eth[8].bitrate = 2100Mbps
*.switch7.eth[9].bitrate = 2200Mbps
*.switch7.eth[10].bitrate = 1800Mbps
*.switch7.eth[11].bitrate = 1300Mbps
*.switch7.eth[12].bitrate = 1400Mbps
*.switch7.eth[13].bitrate = 1700Mbps
*.host8.eth[0].bitrate = 1000Mbps
*.switch8.eth[0].bitrate = 1000Mbps
*.switch8.eth[1].bitrate = 1300Mbps
*.switch8.eth[2].bitrate = 1200Mbps
*.switch8.eth[3].bitrate = 1900Mbps
*.switch8.eth[4].bitrate = 2100Mbps
*.switch8.eth[5].bitrate = 1400Mbps
*.switch8.eth[6].bitrate = 1300Mbps
*.switch8.eth[7].bitrate = 1600Mbps
*.switch8.eth[8].bitrate = 1700Mbps
*.host9.eth[0].bitrate = 1000Mbps
*.switch9.eth[0].bitrate = 1000Mbps
*.switch9.eth[1].bitrate = 1400Mbps
*.switch9.eth[2].bitrate = 2100Mbps
*.switch9.eth[3].bitrate = 1700Mbps
*.switch9.eth[4].bitrate = 1900Mbps
*.switch9.eth[5].bitrate = 2400Mbps
*.switch9.eth[6].bitrate = 1700Mbps
*.switch9.eth[7].bitrate = 1500Mbps
*.switch9.eth[8].bitrate = 1400Mbps
*.switch9.eth[9].bitrate = 2300Mbps
*.switch9.eth[10].bitrate = 1400Mbps
*.switch9.eth[11].bitrate = 1700Mbps
*.host0.numApps = 14
*.host0.app[0].typename = "UdpSourceApp"
*.host0.app[0].io.destAddress = "host5"
*.host0.app[0].source.packetNameFormat = "%M-%m-%c"
*.host0.app[0].source.displayStringTextFormat = "sent %p pk (%l)"
*.host0.app[0].source.packetLength = 12B
*.host0.app[0].source.productionInterval = 1ms
*.host0.app[0].display-name = "type1_1"
*.host0.app[0].io.destPort = 1001
*.host0.app[1].typename = "UdpBasicApp"
*.host0.app[1].destAddresses = "host3"
*.host0.app[1].source.packetNameFormat = "%M-%m-%c"
*.host0.app[1].source.displayStringTextFormat = "sent %p pk (%l)"
*.host0.app[1].messageLength = 24B
*.host0.app[1].sendInterval = 1ms
*.host0.app[1].startTime = 700us
*.host0.app[1].stopTime = 2600us
*.host0.app[1].display-name = "type2_0"
*.host0.app[1].destPort = 1000
*.host0.app[2].typename = "UdpBasicApp"
*.host0.app[2].destAddresses = "host3"
*.host0.app[2].source.packetNameFormat = "%M-%m-%c"
*.host0.app[2].source.displayStringTextFormat = "sent %p pk (%l)"
*.host0.app[2].messageLength = 24B
*.host0.app[2].sendInterval = 1ms
*.host0.app[2].startTime = 2800us
*.host0.app[2].stopTime = 3900us
*.host0.app[2].display-name = "type2_0"
*.host0.app[2].destPort = 1000
*.host0.app[3].typename = "UdpBasicApp"
*.host0.app[3].destAddresses = "host3"
*.host0.app[3].source.packetNameFormat = "%M-%m-%c"
*.host0.app[3].source.displayStringTextFormat = "sent %p pk (%l)"
*.host0.app[3].messageLength = 24B
*.host0.app[3].sendInterval = 1ms
*.host0.app[3].startTime = 4600us
*.host0.app[3].stopTime = 4800us
*.host0.app[3].display-name = "type2_0"
*.host0.app[3].destPort = 1000
*.host0.app[4].typename = "UdpBasicApp"
*.host0.app[4].destAddresses = "host3"
*.host0.app[4].source.packetNameFormat = "%M-%m-%c"
*.host0.app[4].source.displayStringTextFormat = "sent %p pk (%l)"
*.host0.app[4].messageLength = 24B
*.host0.app[4].sendInterval = 1ms
*.host0.app[4].startTime = 7100us
*.host0.app[4].stopTime = 7700us
*.host0.app[4].display-name = "type2_0"
*.host0.app[4].destPort = 1000
*.host0.app[5].typename = "UdpBasicApp"
*.host0.app[5].destAddresses = "host3"
*.host0.app[5].source.packetNameFormat = "%M-%m-%c"
*.host0.app[5].source.displayStringTextFormat = "sent %p pk (%l)"
*.host0.app[5].messageLength = 24B
*.host0.app[5].sendInterval = 1ms
*.host0.app[5].startTime = 8600us
*.host0.app[5].stopTime = 10000us
*.host0.app[5].display-name = "type2_0"
*.host0.app[5].destPort = 1000
*.host0.app[6].typename = "UdpSinkApp"
*.host0.app[6].io.localPort = 1000
*.host0.app[7].typename = "UdpSinkApp"
*.host0.app[7].io.localPort = 1001
*.host0.app[8].typename = "UdpBasicApp"
*.host0.app[8].destAddresses = "host7"
*.host0.app[8].source.packetNameFormat = "%M-%m-%c"
*.host0.app[8].source.displayStringTextFormat = "sent %p pk (%l)"
*.host0.app[8].messageLength = 22B
*.host0.app[8].sendInterval = 1ms
*.host0.app[8].startTime = 1400us
*.host0.app[8].stopTime = 2000us
*.host0.app[8].display-name = "type2_5"
*.host0.app[8].destPort = 1001
*.host0.app[9].typename = "UdpBasicApp"
*.host0.app[9].destAddresses = "host7"
*.host0.app[9].source.packetNameFormat = "%M-%m-%c"
*.host0.app[9].source.displayStringTextFormat = "sent %p pk (%l)"
*.host0.app[9].messageLength = 22B
*.host0.app[9].sendInterval = 1ms
*.host0.app[9].startTime = 2700us
*.host0.app[9].stopTime = 3300us
*.host0.app[9].display-name = "type2_5"
*.host0.app[9].destPort = 1001
*.host0.app[10].typename = "UdpBasicApp"
*.host0.app[10].destAddresses = "host7"
*.host0.app[10].source.packetNameFormat = "%M-%m-%c"
*.host0.app[10].source.displayStringTextFormat = "sent %p pk (%l)"
*.host0.app[10].messageLength = 22B
*.host0.app[10].sendInterval = 1ms
*.host0.app[10].startTime = 3900us
*.host0.app[10].stopTime = 8300us
*.host0.app[10].display-name = "type2_5"
*.host0.app[10].destPort = 1001
*.host0.app[11].typename = "UdpBasicApp"
*.host0.app[11].destAddresses = "host7"
*.host0.app[11].source.packetNameFormat = "%M-%m-%c"
*.host0.app[11].source.displayStringTextFormat = "sent %p pk (%l)"
*.host0.app[11].messageLength = 22B
*.host0.app[11].sendInterval = 1ms
*.host0.app[11].startTime = 8700us
*.host0.app[11].stopTime = 9600us
*.host0.app[11].display-name = "type2_5"
*.host0.app[11].destPort = 1001
*.host0.app[12].typename = "UdpBasicApp"
*.host0.app[12].destAddresses = "host7"
*.host0.app[12].source.packetNameFormat = "%M-%m-%c"
*.host0.app[12].source.displayStringTextFormat = "sent %p pk (%l)"
*.host0.app[12].messageLength = 22B
*.host0.app[12].sendInterval = 1ms
*.host0.app[12].startTime = 9800us
*.host0.app[12].stopTime = 10000us
*.host0.app[12].display-name = "type2_5"
*.host0.app[12].destPort = 1001
*.host0.app[13].typename = "UdpSinkApp"
*.host0.app[13].io.localPort = 1002
*.host1.numApps = 9
*.host1.app[0].typename = "UdpSourceApp"
*.host1.app[0].io.destAddress = "host5"
*.host1.app[0].source.packetNameFormat = "%M-%m-%c"
*.host1.app[0].source.displayStringTextFormat = "sent %p pk (%l)"
*.host1.app[0].source.packetLength = 12B
*.host1.app[0].source.productionInterval = 1ms
*.host1.app[0].display-name = "type1_0"
*.host1.app[0].io.destPort = 1000
*.host1.app[1].typename = "UdpSinkApp"
*.host1.app[1].io.localPort = 1000
*.host1.app[2].typename = "UdpBasicApp"
*.host1.app[2].destAddresses = "host9"
*.host1.app[2].source.packetNameFormat = "%M-%m-%c"
*.host1.app[2].source.displayStringTextFormat = "sent %p pk (%l)"
*.host1.app[2].messageLength = 21B
*.host1.app[2].sendInterval = 1ms
*.host1.app[2].startTime = 3100us
*.host1.app[2].stopTime = 3200us
*.host1.app[2].display-name = "type2_8"
*.host1.app[2].destPort = 1000
*.host1.app[3].typename = "UdpBasicApp"
*.host1.app[3].destAddresses = "host9"
*.host1.app[3].source.packetNameFormat = "%M-%m-%c"
*.host1.app[3].source.displayStringTextFormat = "sent %p pk (%l)"
*.host1.app[3].messageLength = 21B
*.host1.app[3].sendInterval = 1ms
*.host1.app[3].startTime = 4700us
*.host1.app[3].stopTime = 5100us
*.host1.app[3].display-name = "type2_8"
*.host1.app[3].destPort = 1000
*.host1.app[4].typename = "UdpBasicApp"
*.host1.app[4].destAddresses = "host9"
*.host1.app[4].source.packetNameFormat = "%M-%m-%c"
*.host1.app[4].source.displayStringTextFormat = "sent %p pk (%l)"
*.host1.app[4].messageLength = 21B
*.host1.app[4].sendInterval = 1ms
*.host1.app[4].startTime = 6300us
*.host1.app[4].stopTime = 7700us
*.host1.app[4].display-name = "type2_8"
*.host1.app[4].destPort = 1000
*.host1.app[5].typename = "UdpBasicApp"
*.host1.app[5].destAddresses = "host8"
*.host1.app[5].source.packetNameFormat = "%M-%m-%c"
*.host1.app[5].source.displayStringTextFormat = "sent %p pk (%l)"
*.host1.app[5].messageLength = 21B
*.host1.app[5].sendInterval = 1ms
*.host1.app[5].startTime = 900us
*.host1.app[5].stopTime = 2600us
*.host1.app[5].display-name = "type2_11"
*.host1.app[5].destPort = 1002
*.host1.app[6].typename = "UdpBasicApp"
*.host1.app[6].destAddresses = "host8"
*.host1.app[6].source.packetNameFormat = "%M-%m-%c"
*.host1.app[6].source.displayStringTextFormat = "sent %p pk (%l)"
*.host1.app[6].messageLength = 21B
*.host1.app[6].sendInterval = 1ms
*.host1.app[6].startTime = 2700us
*.host1.app[6].stopTime = 2900us
*.host1.app[6].display-name = "type2_11"
*.host1.app[6].destPort = 1002
*.host1.app[7].typename = "UdpBasicApp"
*.host1.app[7].destAddresses = "host8"
*.host1.app[7].source.packetNameFormat = "%M-%m-%c"
*.host1.app[7].source.displayStringTextFormat = "sent %p pk (%l)"
*.host1.app[7].messageLength = 21B
*.host1.app[7].sendInterval = 1ms
*.host1.app[7].startTime = 4900us
*.host1.app[7].stopTime = 5500us
*.host1.app[7].display-name = "type2_11"
*.host1.app[7].destPort = 1002
*.host1.app[8].typename = "UdpBasicApp"
*.host1.app[8].destAddresses = "host8"
*.host1.app[8].source.packetNameFormat = "%M-%m-%c"
*.host1.app[8].source.displayStringTextFormat = "sent %p pk (%l)"
*.host1.app[8].messageLength = 21B
*.host1.app[8].sendInterval = 1ms
*.host1.app[8].startTime = 8900us
*.host1.app[8].stopTime = 9900us
*.host1.app[8].display-name = "type2_11"
*.host1.app[8].destPort = 1002
*.host2.numApps = 9
*.host2.app[0].typename = "UdpBasicApp"
*.host2.app[0].destAddresses = "host8"
*.host2.app[0].source.packetNameFormat = "%M-%m-%c"
*.host2.app[0].source.displayStringTextFormat = "sent %p pk (%l)"
*.host2.app[0].messageLength = 18B
*.host2.app[0].sendInterval = 1ms
*.host2.app[0].startTime = 1000us
*.host2.app[0].stopTime = 1200us
*.host2.app[0].display-name = "type2_7"
*.host2.app[0].destPort = 1000
*.host2.app[1].typename = "UdpBasicApp"
*.host2.app[1].destAddresses = "host8"
*.host2.app[1].source.packetNameFormat = "%M-%m-%c"
*.host2.app[1].source.displayStringTextFormat = "sent %p pk (%l)"
*.host2.app[1].messageLength = 18B
*.host2.app[1].sendInterval = 1ms
*.host2.app[1].startTime = 1600us
*.host2.app[1].stopTime = 1800us
*.host2.app[1].display-name = "type2_7"
*.host2.app[1].destPort = 1000
*.host2.app[2].typename = "UdpBasicApp"
*.host2.app[2].destAddresses = "host8"
*.host2.app[2].source.packetNameFormat = "%M-%m-%c"
*.host2.app[2].source.displayStringTextFormat = "sent %p pk (%l)"
*.host2.app[2].messageLength = 18B
*.host2.app[2].sendInterval = 1ms
*.host2.app[2].startTime = 2300us
*.host2.app[2].stopTime = 2500us
*.host2.app[2].display-name = "type2_7"
*.host2.app[2].destPort = 1000
*.host2.app[3].typename = "UdpBasicApp"
*.host2.app[3].destAddresses = "host8"
*.host2.app[3].source.packetNameFormat = "%M-%m-%c"
*.host2.app[3].source.displayStringTextFormat = "sent %p pk (%l)"
*.host2.app[3].messageLength = 18B
*.host2.app[3].sendInterval = 1ms
*.host2.app[3].startTime = 2600us
*.host2.app[3].stopTime = 3100us
*.host2.app[3].display-name = "type2_7"
*.host2.app[3].destPort = 1000
*.host2.app[4].typename = "UdpBasicApp"
*.host2.app[4].destAddresses = "host8"
*.host2.app[4].source.packetNameFormat = "%M-%m-%c"
*.host2.app[4].source.displayStringTextFormat = "sent %p pk (%l)"
*.host2.app[4].messageLength = 18B
*.host2.app[4].sendInterval = 1ms
*.host2.app[4].startTime = 3300us
*.host2.app[4].stopTime = 3800us
*.host2.app[4].display-name = "type2_7"
*.host2.app[4].destPort = 1000
*.host2.app[5].typename = "UdpBasicApp"
*.host2.app[5].destAddresses = "host8"
*.host2.app[5].source.packetNameFormat = "%M-%m-%c"
*.host2.app[5].source.displayStringTextFormat = "sent %p pk (%l)"
*.host2.app[5].messageLength = 18B
*.host2.app[5].sendInterval = 1ms
*.host2.app[5].startTime = 4600us
*.host2.app[5].stopTime = 4800us
*.host2.app[5].display-name = "type2_7"
*.host2.app[5].destPort = 1000
*.host2.app[6].typename = "UdpBasicApp"
*.host2.app[6].destAddresses = "host8"
*.host2.app[6].source.packetNameFormat = "%M-%m-%c"
*.host2.app[6].source.displayStringTextFormat = "sent %p pk (%l)"
*.host2.app[6].messageLength = 18B
*.host2.app[6].sendInterval = 1ms
*.host2.app[6].startTime = 7400us
*.host2.app[6].stopTime = 8400us
*.host2.app[6].display-name = "type2_7"
*.host2.app[6].destPort = 1000
*.host2.app[7].typename = "UdpBasicApp"
*.host2.app[7].destAddresses = "host8"
*.host2.app[7].source.packetNameFormat = "%M-%m-%c"
*.host2.app[7].source.displayStringTextFormat = "sent %p pk (%l)"
*.host2.app[7].messageLength = 18B
*.host2.app[7].sendInterval = 1ms
*.host2.app[7].startTime = 8600us
*.host2.app[7].stopTime = 8800us
*.host2.app[7].display-name = "type2_7"
*.host2.app[7].destPort = 1000
*.host2.app[8].typename = "UdpBasicApp"
*.host2.app[8].destAddresses = "host8"
*.host2.app[8].source.packetNameFormat = "%M-%m-%c"
*.host2.app[8].source.displayStringTextFormat = "sent %p pk (%l)"
*.host2.app[8].messageLength = 18B
*.host2.app[8].sendInterval = 1ms
*.host2.app[8].startTime = 9600us
*.host2.app[8].stopTime = 10000us
*.host2.app[8].display-name = "type2_7"
*.host2.app[8].destPort = 1000
*.host3.numApps = 2
*.host3.app[0].typename = "UdpSinkApp"
*.host3.app[0].io.localPort = 1000
*.host3.app[1].typename = "UdpSinkApp"
*.host3.app[1].io.localPort = 1001
*.host4.numApps = 13
*.host4.app[0].typename = "UdpBasicApp"
*.host4.app[0].destAddresses = "host0"
*.host4.app[0].source.packetNameFormat = "%M-%m-%c"
*.host4.app[0].source.displayStringTextFormat = "sent %p pk (%l)"
*.host4.app[0].messageLength = 14B
*.host4.app[0].sendInterval = 1ms
*.host4.app[0].startTime = 1100us
*.host4.app[0].stopTime = 1800us
*.host4.app[0].display-name = "type2_4"
*.host4.app[0].destPort = 1001
*.host4.app[1].typename = "UdpBasicApp"
*.host4.app[1].destAddresses = "host0"
*.host4.app[1].source.packetNameFormat = "%M-%m-%c"
*.host4.app[1].source.displayStringTextFormat = "sent %p pk (%l)"
*.host4.app[1].messageLength = 14B
*.host4.app[1].sendInterval = 1ms
*.host4.app[1].startTime = 2100us
*.host4.app[1].stopTime = 2500us
*.host4.app[1].display-name = "type2_4"
*.host4.app[1].destPort = 1001
*.host4.app[2].typename = "UdpBasicApp"
*.host4.app[2].destAddresses = "host0"
*.host4.app[2].source.packetNameFormat = "%M-%m-%c"
*.host4.app[2].source.displayStringTextFormat = "sent %p pk (%l)"
*.host4.app[2].messageLength = 14B
*.host4.app[2].sendInterval = 1ms
*.host4.app[2].startTime = 2900us
*.host4.app[2].stopTime = 3500us
*.host4.app[2].display-name = "type2_4"
*.host4.app[2].destPort = 1001
*.host4.app[3].typename = "UdpBasicApp"
*.host4.app[3].destAddresses = "host0"
*.host4.app[3].source.packetNameFormat = "%M-%m-%c"
*.host4.app[3].source.displayStringTextFormat = "sent %p pk (%l)"
*.host4.app[3].messageLength = 14B
*.host4.app[3].sendInterval = 1ms
*.host4.app[3].startTime = 4000us
*.host4.app[3].stopTime = 4200us
*.host4.app[3].display-name = "type2_4"
*.host4.app[3].destPort = 1001
*.host4.app[4].typename = "UdpBasicApp"
*.host4.app[4].destAddresses = "host0"
*.host4.app[4].source.packetNameFormat = "%M-%m-%c"
*.host4.app[4].source.displayStringTextFormat = "sent %p pk (%l)"
*.host4.app[4].messageLength = 14B
*.host4.app[4].sendInterval = 1ms
*.host4.app[4].startTime = 4300us
*.host4.app[4].stopTime = 6900us
*.host4.app[4].display-name = "type2_4"
*.host4.app[4].destPort = 1001
*.host4.app[5].typename = "UdpBasicApp"
*.host4.app[5].destAddresses = "host0"
*.host4.app[5].source.packetNameFormat = "%M-%m-%c"
*.host4.app[5].source.displayStringTextFormat = "sent %p pk (%l)"
*.host4.app[5].messageLength = 14B
*.host4.app[5].sendInterval = 1ms
*.host4.app[5].startTime = 7700us
*.host4.app[5].stopTime = 9100us
*.host4.app[5].display-name = "type2_4"
*.host4.app[5].destPort = 1001
*.host4.app[6].typename = "UdpBasicApp"
*.host4.app[6].destAddresses = "host1"
*.host4.app[6].source.packetNameFormat = "%M-%m-%c"
*.host4.app[6].source.displayStringTextFormat = "sent %p pk (%l)"
*.host4.app[6].messageLength = 22B
*.host4.app[6].sendInterval = 1ms
*.host4.app[6].startTime = 200us
*.host4.app[6].stopTime = 400us
*.host4.app[6].display-name = "type2_6"
*.host4.app[6].destPort = 1000
*.host4.app[7].typename = "UdpBasicApp"
*.host4.app[7].destAddresses = "host1"
*.host4.app[7].source.packetNameFormat = "%M-%m-%c"
*.host4.app[7].source.displayStringTextFormat = "sent %p pk (%l)"
*.host4.app[7].messageLength = 22B
*.host4.app[7].sendInterval = 1ms
*.host4.app[7].startTime = 1000us
*.host4.app[7].stopTime = 2000us
*.host4.app[7].display-name = "type2_6"
*.host4.app[7].destPort = 1000
*.host4.app[8].typename = "UdpBasicApp"
*.host4.app[8].destAddresses = "host1"
*.host4.app[8].source.packetNameFormat = "%M-%m-%c"
*.host4.app[8].source.displayStringTextFormat = "sent %p pk (%l)"
*.host4.app[8].messageLength = 22B
*.host4.app[8].sendInterval = 1ms
*.host4.app[8].startTime = 2500us
*.host4.app[8].stopTime = 2600us
*.host4.app[8].display-name = "type2_6"
*.host4.app[8].destPort = 1000
*.host4.app[9].typename = "UdpBasicApp"
*.host4.app[9].destAddresses = "host1"
*.host4.app[9].source.packetNameFormat = "%M-%m-%c"
*.host4.app[9].source.displayStringTextFormat = "sent %p pk (%l)"
*.host4.app[9].messageLength = 22B
*.host4.app[9].sendInterval = 1ms
*.host4.app[9].startTime = 3400us
*.host4.app[9].stopTime = 4600us
*.host4.app[9].display-name = "type2_6"
*.host4.app[9].destPort = 1000
*.host4.app[10].typename = "UdpBasicApp"
*.host4.app[10].destAddresses = "host1"
*.host4.app[10].source.packetNameFormat = "%M-%m-%c"
*.host4.app[10].source.displayStringTextFormat = "sent %p pk (%l)"
*.host4.app[10].messageLength = 22B
*.host4.app[10].sendInterval = 1ms
*.host4.app[10].startTime = 4800us
*.host4.app[10].stopTime = 8400us
*.host4.app[10].display-name = "type2_6"
*.host4.app[10].destPort = 1000
*.host4.app[11].typename = "UdpBasicApp"
*.host4.app[11].destAddresses = "host1"
*.host4.app[11].source.packetNameFormat = "%M-%m-%c"
*.host4.app[11].source.displayStringTextFormat = "sent %p pk (%l)"
*.host4.app[11].messageLength = 22B
*.host4.app[11].sendInterval = 1ms
*.host4.app[11].startTime = 9100us
*.host4.app[11].stopTime = 9300us
*.host4.app[11].display-name = "type2_6"
*.host4.app[11].destPort = 1000
*.host4.app[12].typename = "UdpBasicApp"
*.host4.app[12].destAddresses = "host1"
*.host4.app[12].source.packetNameFormat = "%M-%m-%c"
*.host4.app[12].source.displayStringTextFormat = "sent %p pk (%l)"
*.host4.app[12].messageLength = 22B
*.host4.app[12].sendInterval = 1ms
*.host4.app[12].startTime = 9700us
*.host4.app[12].stopTime = 9900us
*.host4.app[12].display-name = "type2_6"
*.host4.app[12].destPort = 1000
*.host5.numApps = 15
*.host5.app[0].typename = "UdpSinkApp"
*.host5.app[0].io.localPort = 1000
*.host5.app[1].typename = "UdpSinkApp"
*.host5.app[1].io.localPort = 1001
*.host5.app[2].typename = "UdpBasicApp"
*.host5.app[2].destAddresses = "host0"
*.host5.app[2].source.packetNameFormat = "%M-%m-%c"
*.host5.app[2].source.displayStringTextFormat = "sent %p pk (%l)"
*.host5.app[2].messageLength = 15B
*.host5.app[2].sendInterval = 1ms
*.host5.app[2].startTime = 300us
*.host5.app[2].stopTime = 600us
*.host5.app[2].display-name = "type2_1"
*.host5.app[2].destPort = 1000
*.host5.app[3].typename = "UdpBasicApp"
*.host5.app[3].destAddresses = "host0"
*.host5.app[3].source.packetNameFormat = "%M-%m-%c"
*.host5.app[3].source.displayStringTextFormat = "sent %p pk (%l)"
*.host5.app[3].messageLength = 15B
*.host5.app[3].sendInterval = 1ms
*.host5.app[3].startTime = 1100us
*.host5.app[3].stopTime = 1800us
*.host5.app[3].display-name = "type2_1"
*.host5.app[3].destPort = 1000
*.host5.app[4].typename = "UdpBasicApp"
*.host5.app[4].destAddresses = "host0"
*.host5.app[4].source.packetNameFormat = "%M-%m-%c"
*.host5.app[4].source.displayStringTextFormat = "sent %p pk (%l)"
*.host5.app[4].messageLength = 15B
*.host5.app[4].sendInterval = 1ms
*.host5.app[4].startTime = 2600us
*.host5.app[4].stopTime = 3100us
*.host5.app[4].display-name = "type2_1"
*.host5.app[4].destPort = 1000
*.host5.app[5].typename = "UdpBasicApp"
*.host5.app[5].destAddresses = "host0"
*.host5.app[5].source.packetNameFormat = "%M-%m-%c"
*.host5.app[5].source.displayStringTextFormat = "sent %p pk (%l)"
*.host5.app[5].messageLength = 15B
*.host5.app[5].sendInterval = 1ms
*.host5.app[5].startTime = 4000us
*.host5.app[5].stopTime = 5300us
*.host5.app[5].display-name = "type2_1"
*.host5.app[5].destPort = 1000
*.host5.app[6].typename = "UdpBasicApp"
*.host5.app[6].destAddresses = "host0"
*.host5.app[6].source.packetNameFormat = "%M-%m-%c"
*.host5.app[6].source.displayStringTextFormat = "sent %p pk (%l)"
*.host5.app[6].messageLength = 15B
*.host5.app[6].sendInterval = 1ms
*.host5.app[6].startTime = 5400us
*.host5.app[6].stopTime = 6200us
*.host5.app[6].display-name = "type2_1"
*.host5.app[6].destPort = 1000
*.host5.app[7].typename = "UdpBasicApp"
*.host5.app[7].destAddresses = "host0"
*.host5.app[7].source.packetNameFormat = "%M-%m-%c"
*.host5.app[7].source.displayStringTextFormat = "sent %p pk (%l)"
*.host5.app[7].messageLength = 15B
*.host5.app[7].sendInterval = 1ms
*.host5.app[7].startTime = 6400us
*.host5.app[7].stopTime = 8200us
*.host5.app[7].display-name = "type2_1"
*.host5.app[7].destPort = 1000
*.host5.app[8].typename = "UdpBasicApp"
*.host5.app[8].destAddresses = "host0"
*.host5.app[8].source.packetNameFormat = "%M-%m-%c"
*.host5.app[8].source.displayStringTextFormat = "sent %p pk (%l)"
*.host5.app[8].messageLength = 15B
*.host5.app[8].sendInterval = 1ms
*.host5.app[8].startTime = 9100us
*.host5.app[8].stopTime = 9800us
*.host5.app[8].display-name = "type2_1"
*.host5.app[8].destPort = 1000
*.host5.app[9].typename = "UdpBasicApp"
*.host5.app[9].destAddresses = "host6"
*.host5.app[9].source.packetNameFormat = "%M-%m-%c"
*.host5.app[9].source.displayStringTextFormat = "sent %p pk (%l)"
*.host5.app[9].messageLength = 21B
*.host5.app[9].sendInterval = 1ms
*.host5.app[9].startTime = 2000us
*.host5.app[9].stopTime = 2100us
*.host5.app[9].display-name = "type2_3"
*.host5.app[9].destPort = 1000
*.host5.app[10].typename = "UdpBasicApp"
*.host5.app[10].destAddresses = "host6"
*.host5.app[10].source.packetNameFormat = "%M-%m-%c"
*.host5.app[10].source.displayStringTextFormat = "sent %p pk (%l)"
*.host5.app[10].messageLength = 21B
*.host5.app[10].sendInterval = 1ms
*.host5.app[10].startTime = 2800us
*.host5.app[10].stopTime = 3300us
*.host5.app[10].display-name = "type2_3"
*.host5.app[10].destPort = 1000
*.host5.app[11].typename = "UdpBasicApp"
*.host5.app[11].destAddresses = "host6"
*.host5.app[11].source.packetNameFormat = "%M-%m-%c"
*.host5.app[11].source.displayStringTextFormat = "sent %p pk (%l)"
*.host5.app[11].messageLength = 21B
*.host5.app[11].sendInterval = 1ms
*.host5.app[11].startTime = 4400us
*.host5.app[11].stopTime = 5000us
*.host5.app[11].display-name = "type2_3"
*.host5.app[11].destPort = 1000
*.host5.app[12].typename = "UdpBasicApp"
*.host5.app[12].destAddresses = "host6"
*.host5.app[12].source.packetNameFormat = "%M-%m-%c"
*.host5.app[12].source.displayStringTextFormat = "sent %p pk (%l)"
*.host5.app[12].messageLength = 21B
*.host5.app[12].sendInterval = 1ms
*.host5.app[12].startTime = 6500us
*.host5.app[12].stopTime = 7000us
*.host5.app[12].display-name = "type2_3"
*.host5.app[12].destPort = 1000
*.host5.app[13].typename = "UdpBasicApp"
*.host5.app[13].destAddresses = "host6"
*.host5.app[13].source.packetNameFormat = "%M-%m-%c"
*.host5.app[13].source.displayStringTextFormat = "sent %p pk (%l)"
*.host5.app[13].messageLength = 21B
*.host5.app[13].sendInterval = 1ms
*.host5.app[13].startTime = 8000us
*.host5.app[13].stopTime = 8300us
*.host5.app[13].display-name = "type2_3"
*.host5.app[13].destPort = 1000
*.host5.app[14].typename = "UdpBasicApp"
*.host5.app[14].destAddresses = "host6"
*.host5.app[14].source.packetNameFormat = "%M-%m-%c"
*.host5.app[14].source.displayStringTextFormat = "sent %p pk (%l)"
*.host5.app[14].messageLength = 21B
*.host5.app[14].sendInterval = 1ms
*.host5.app[14].startTime = 8900us
*.host5.app[14].stopTime = 9200us
*.host5.app[14].display-name = "type2_3"
*.host5.app[14].destPort = 1000
*.host6.numApps = 8
*.host6.app[0].typename = "UdpBasicApp"
*.host6.app[0].destAddresses = "host3"
*.host6.app[0].source.packetNameFormat = "%M-%m-%c"
*.host6.app[0].source.displayStringTextFormat = "sent %p pk (%l)"
*.host6.app[0].messageLength = 18B
*.host6.app[0].sendInterval = 1ms
*.host6.app[0].startTime = 600us
*.host6.app[0].stopTime = 900us
*.host6.app[0].display-name = "type2_2"
*.host6.app[0].destPort = 1001
*.host6.app[1].typename = "UdpBasicApp"
*.host6.app[1].destAddresses = "host3"
*.host6.app[1].source.packetNameFormat = "%M-%m-%c"
*.host6.app[1].source.displayStringTextFormat = "sent %p pk (%l)"
*.host6.app[1].messageLength = 18B
*.host6.app[1].sendInterval = 1ms
*.host6.app[1].startTime = 1300us
*.host6.app[1].stopTime = 1900us
*.host6.app[1].display-name = "type2_2"
*.host6.app[1].destPort = 1001
*.host6.app[2].typename = "UdpBasicApp"
*.host6.app[2].destAddresses = "host3"
*.host6.app[2].source.packetNameFormat = "%M-%m-%c"
*.host6.app[2].source.displayStringTextFormat = "sent %p pk (%l)"
*.host6.app[2].messageLength = 18B
*.host6.app[2].sendInterval = 1ms
*.host6.app[2].startTime = 2500us
*.host6.app[2].stopTime = 3400us
*.host6.app[2].display-name = "type2_2"
*.host6.app[2].destPort = 1001
*.host6.app[3].typename = "UdpBasicApp"
*.host6.app[3].destAddresses = "host3"
*.host6.app[3].source.packetNameFormat = "%M-%m-%c"
*.host6.app[3].source.displayStringTextFormat = "sent %p pk (%l)"
*.host6.app[3].messageLength = 18B
*.host6.app[3].sendInterval = 1ms
*.host6.app[3].startTime = 4400us
*.host6.app[3].stopTime = 5400us
*.host6.app[3].display-name = "type2_2"
*.host6.app[3].destPort = 1001
*.host6.app[4].typename = "UdpBasicApp"
*.host6.app[4].destAddresses = "host3"
*.host6.app[4].source.packetNameFormat = "%M-%m-%c"
*.host6.app[4].source.displayStringTextFormat = "sent %p pk (%l)"
*.host6.app[4].messageLength = 18B
*.host6.app[4].sendInterval = 1ms
*.host6.app[4].startTime = 6800us
*.host6.app[4].stopTime = 7900us
*.host6.app[4].display-name = "type2_2"
*.host6.app[4].destPort = 1001
*.host6.app[5].typename = "UdpBasicApp"
*.host6.app[5].destAddresses = "host3"
*.host6.app[5].source.packetNameFormat = "%M-%m-%c"
*.host6.app[5].source.displayStringTextFormat = "sent %p pk (%l)"
*.host6.app[5].messageLength = 18B
*.host6.app[5].sendInterval = 1ms
*.host6.app[5].startTime = 8400us
*.host6.app[5].stopTime = 8800us
*.host6.app[5].display-name = "type2_2"
*.host6.app[5].destPort = 1001