[General]
network = TSN_multipath
sim-time-limit = 10ms
*.macForwardingTableConfigurator.typename = ""
*.*.hasStreamRedundancy = true
*.*.bridging.streamRelay.typename = "StreamRelayLayer"
*.*.bridging.streamCoder.typename = "StreamCoderLayer"
*.streamRedundancyConfigurator.typename = "StreamRedundancyConfigurator"
*.host0.eth[0].bitrate = 1000Mbps
*.switch0.eth[0].bitrate = 1000Mbps
*.switch0.eth[1].bitrate = 1900Mbps
*.switch0.eth[2].bitrate = 1700Mbps
*.switch0.eth[3].bitrate = 1300Mbps
*.switch0.eth[4].bitrate = 1400Mbps
*.switch0.eth[5].bitrate = 1600Mbps
*.switch0.eth[6].bitrate = 2400Mbps
*.switch0.eth[7].bitrate = 1900Mbps
*.switch0.eth[8].bitrate = 1800Mbps
*.switch0.eth[9].bitrate = 1400Mbps
*.host1.eth[0].bitrate = 1000Mbps
*.switch1.eth[0].bitrate = 1000Mbps
*.switch1.eth[1].bitrate = 1300Mbps
*.switch1.eth[2].bitrate = 2200Mbps
*.switch1.eth[3].bitrate = 1500Mbps
*.switch1.eth[4].bitrate = 1300Mbps
*.switch1.eth[5].bitrate = 2300Mbps
*.switch1.eth[6].bitrate = 1800Mbps
*.switch1.eth[7].bitrate = 2000Mbps
*.switch1.eth[8].bitrate = 1400Mbps
*.switch1.eth[9].bitrate = 2100Mbps
*.switch1.eth[10].bitrate = 1800Mbps
*.switch1.eth[11].bitrate = 2300Mbps
*.host2.eth[0].bitrate = 1000Mbps
*.switch2.eth[0].bitrate = 1000Mbps
*.switch2.eth[1].bitrate = 1900Mbps
*.switch2.eth[2].bitrate = 2200Mbps
*.switch2.eth[3].bitrate = 1400Mbps
*.switch2.eth[4].bitrate = 2100Mbps
*.switch2.eth[5].bitrate = 2100Mbps
*.switch2.eth[6].bitrate = 1400Mbps
*.switch2.eth[7].bitrate = 2000Mbps
*.switch2.eth[8].bitrate = 1200Mbps
*.host3.eth[0].bitrate = 1000Mbps
*.switch3.eth[0].bitrate = 1000Mbps
*.switch3.eth[1].bitrate = 1600Mbps
*.switch3.eth[2].bitrate = 1400Mbps
*.switch3.eth[3].bitrate = 1400Mbps
*.switch3.eth[4].bitrate = 1500Mbps
*.switch3.eth[5].bitrate = 1300Mbps
*.switch3.eth[6].bitrate = 1900Mbps
*.switch3.eth[7].bitrate = 2100Mbps
*.switch3.eth[8].bitrate = 1200Mbps
*.host4.eth[0].bitrate = 1000Mbps
*.switch4.eth[0].bitrate = 1000Mbps
*.switch4.eth[1].bitrate = 1500Mbps
*.switch4.eth[2].bitrate = 2400Mbps
*.switch4.eth[3].bitrate = 2000Mbps
*.switch4.eth[4].bitrate = 1300Mbps
*.switch4.eth[5].bitrate = 1400Mbps
*.switch4.eth[6].bitrate = 1500Mbps
*.switch4.eth[7].bitrate = 1200Mbps
*.switch4.eth[8].bitrate = 1600Mbps
*.switch4.eth[9].bitrate = 1900Mbps
*.host5.eth[0].bitrate = 1000Mbps
*.switch5.eth[0].bitrate = 1000Mbps
*.switch5.eth[1].bitrate = 1300Mbps
*.switch5.eth[2].bitrate = 1400Mbps
*.switch5.eth[3].bitrate = 1400Mbps
*.switch5.eth[4].bitrate = 1900Mbps
*.switch5.eth[5].bitrate = 2000Mbps
*.switch5.eth[6].bitrate = 2200Mbps
*.host6.eth[0].bitrate = 1000Mbps
*.switch6.eth[0].bitrate = 1000Mbps
*.switch6.eth[1].bitrate = 1700Mbps
*.switch6.eth[2].bitrate = 2300Mbps
*.switch6.eth[3].bitrate = 1900Mbps
*.switch6.eth[4].bitrate = 1800Mbps
*.switch6.eth[5].bitrate = 1200Mbps
*.switch6.eth[6].bitrate = 2100Mbps
*.switch6.eth[7].bitrate = 1600Mbps
*.switch6.eth[8].bitrate = 2000Mbps
*.switch6.eth[9].bitrate = 1300Mbps
*.switch6.eth[10].bitrate = 1300Mbps
*.switch6.eth[11].bitrate = 2400Mbps
*.switch6.eth[12].bitrate = 2000Mbps
*.host7.eth[0].bitrate = 1000Mbps
*.switch7.eth[0].bitrate = 1000Mbps
*.switch7.eth[1].bitrate = 1800Mbps
*.switch7.eth[2].bitrate = 2300Mbps
*.switch7.eth[3].bitrate = 1200Mbps
*.switch7.eth[4].bitrate = 2400Mbps
*.host8.eth[0].bitrate = 1000Mbps
*.switch8.eth[0].bitrate = 1000Mbps
*.switch8.eth[1].bitrate = 2000Mbps
*.switch8.eth[2].bitrate = 1500Mbps
*.switch8.eth[3].bitrate = 1500Mbps
*.switch8.eth[4].bitrate = 1300Mbps
*.switch8.eth[5].bitrate = 1800Mbps
*.switch8.eth[6].bitrate = 2000Mbps
*.host9.eth[0].bitrate = 1000Mbps
*.switch9.eth[0].bitrate = 1000Mbps
*.switch9.eth[1].bitrate = 1400Mbps
*.switch9.eth[2].bitrate = 2100Mbps
*.switch9.eth[3].bitrate = 1200Mbps
*.switch9.eth[4].bitrate = 1300Mbps
*.switch9.eth[5].bitrate = 1400Mbps
*.switch9.eth[6].bitrate = 1900Mbps
*.switch9.eth[7].bitrate = 2200Mbps
*.switch9.eth[8].bitrate = 2000Mbps
*.switch9.eth[9].bitrate = 2000Mbps
*.host0.numApps = 0
*.host1.numApps = 8
*.host1.app[0].typename = "UdpSinkApp"
*.host1.app[0].io.localPort = 1000
*.host1.app[1].typename = "UdpBasicApp"
*.host1.app[1].destAddresses = "host6"
*.host1.app[1].source.packetNameFormat = "%M-%m-%c"
*.host1.app[1].source.displayStringTextFormat = "sent %p pk (%l)"
*.host1.app[1].messageLength = 19B
*.host1.app[1].sendInterval = 1ms
*.host1.app[1].startTime = 700us
*.host1.app[1].stopTime = 2000us
*.host1.app[1].display-name = "type2_5"
*.host1.app[1].destPort = 1001
*.host1.app[2].typename = "UdpBasicApp"
*.host1.app[2].destAddresses = "host6"
*.host1.app[2].source.packetNameFormat = "%M-%m-%c"
*.host1.app[2].source.displayStringTextFormat = "sent %p pk (%l)"
*.host1.app[2].messageLength = 19B
*.host1.app[2].sendInterval = 1ms
*.host1.app[2].startTime = 2300us
*.host1.app[2].stopTime = 2700us
*.host1.app[2].display-name = "type2_5"
*.host1.app[2].destPort = 1001
*.host1.app[3].typename = "UdpBasicApp"
*.host1.app[3].destAddresses = "host6"
*.host1.app[3].source.packetNameFormat = "%M-%m-%c"
*.host1.app[3].source.displayStringTextFormat = "sent %p pk (%l)"
*.host1.app[3].messageLength = 19B
*.host1.app[3].sendInterval = 1ms
*.host1.app[3].startTime = 3500us
*.host1.app[3].stopTime = 4500us
*.host1.app[3].display-name = "type2_5"
*.host1.app[3].destPort = 1001
*.host1.app[4].typename = "UdpBasicApp"
*.host1.app[4].destAddresses = "host6"
*.host1.app[4].source.packetNameFormat = "%M-%m-%c"
*.host1.app[4].source.displayStringTextFormat = "sent %p pk (%l)"
*.host1.app[4].messageLength = 19B
*.host1.app[4].sendInterval = 1ms
*.host1.app[4].startTime = 5200us
*.host1.app[4].stopTime = 5500us
*.host1.app[4].display-name = "type2_5"
*.host1.app[4].destPort = 1001
*.host1.app[5].typename = "UdpBasicApp"
*.host1.app[5].destAddresses = "host6"
*.host1.app[5].source.packetNameFormat = "%M-%m-%c"
*.host1.app[5].source.displayStringTextFormat = "sent %p pk (%l)"
*.host1.app[5].messageLength = 19B
*.host1.app[5].sendInterval = 1ms
*.host1.app[5].startTime = 7200us
*.host1.app[5].stopTime = 7600us
*.host1.app[5].display-name = "type2_5"
*.host1.app[5].destPort = 1001
*.host1.app[6].typename = "UdpBasicApp"
*.host1.app[6].destAddresses = "host6"
*.host1.app[6].source.packetNameFormat = "%M-%m-%c"
*.host1.app[6].source.displayStringTextFormat = "sent %p pk (%l)"
*.host1.app[6].messageLength = 19B
*.host1.app[6].sendInterval = 1ms
*.host1.app[6].startTime = 8200us
*.host1.app[6].stopTime = 8400us
*.host1.app[6].display-name = "type2_5"
*.host1.app[6].destPort = 1001
*.host1.app[7].typename = "UdpBasicApp"
*.host1.app[7].destAddresses = "host6"
*.host1.app[7].source.packetNameFormat = "%M-%m-%c"
*.host1.app[7].source.displayStringTextFormat = "sent %p pk (%l)"
*.host1.app[7].messageLength = 19B
*.host1.app[7].sendInterval = 1ms
*.host1.app[7].startTime = 9000us
*.host1.app[7].stopTime = 10000us
*.host1.app[7].display-name = "type2_5"
*.host1.app[7].destPort = 1001
*.host2.numApps = 9
*.host2.app[0].typename = "UdpSinkApp"
*.host2.app[0].io.localPort = 1000
*.host2.app[1].typename = "UdpSinkApp"
*.host2.app[1].io.localPort = 1001
*.host2.app[2].typename = "UdpSinkApp"
*.host2.app[2].io.localPort = 1002
*.host2.app[3].typename = "UdpBasicApp"
*.host2.app[3].destAddresses = "host3"
*.host2.app[3].source.packetNameFormat = "%M-%m-%c"
*.host2.app[3].source.displayStringTextFormat = "sent %p pk (%l)"
*.host2.app[3].messageLength = 24B
*.host2.app[3].sendInterval = 1ms
*.host2.app[3].startTime = 300us
*.host2.app[3].stopTime = 1100us
*.host2.app[3].display-name = "type2_4"
*.host2.app[3].destPort = 1001
*.host2.app[4].typename = "UdpBasicApp"
*.host2.app[4].destAddresses = "host3"
*.host2.app[4].source.packetNameFormat = "%M-%m-%c"
*.host2.app[4].source.displayStringTextFormat = "sent %p pk (%l)"
*.host2.app[4].messageLength = 24B
*.host2.app[4].sendInterval = 1ms
*.host2.app[4].startTime = 1500us
*.host2.app[4].stopTime = 3100us
*.host2.app[4].display-name = "type2_4"
*.host2.app[4].destPort = 1001
*.host2.app[5].typename = "UdpBasicApp"
*.host2.app[5].destAddresses = "host3"
*.host2.app[5].source.packetNameFormat = "%M-%m-%c"
*.host2.app[5].source.displayStringTextFormat = "sent %p pk (%l)"
*.host2.app[5].messageLength = 24B
*.host2.app[5].sendInterval = 1ms
*.host2.app[5].startTime = 4800us
*.host2.app[5].stopTime = 6500us
*.host2.app[5].display-name = "type2_4"
*.host2.app[5].destPort = 1001
*.host2.app[6].typename = "UdpBasicApp"
*.host2.app[6].destAddresses = "host3"
*.host2.app[6].source.packetNameFormat = "%M-%m-%c"
*.host2.app[6].source.displayStringTextFormat = "sent %p pk (%l)"
*.host2.app[6].messageLength = 24B
*.host2.app[6].sendInterval = 1ms
*.host2.app[6].startTime = 7100us
*.host2.app[6].stopTime = 7800us
*.host2.app[6].display-name = "type2_4"
*.host2.app[6].destPort = 1001
*.host2.app[7].typename = "UdpBasicApp"
*.host2.app[7].destAddresses = "host3"
*.host2.app[7].source.packetNameFormat = "%M-%m-%c"
*.host2.app[7].source.displayStringTextFormat = "sent %p pk (%l)"
*.host2.app[7].messageLength = 24B
*.host2.app[7].sendInterval = 1ms
*.host2.app[7].startTime = 9000us
*.host2.app[7].stopTime = 9800us
*.host2.app[7].display-name = "type2_4"
*.host2.app[7].destPort = 1001
*.host2.app[8].typename = "UdpSinkApp"
*.host2.app[8].io.localPort = 1003
*.host3.numApps = 25
*.host3.app[0].typename = "UdpBasicApp"
*.host3.app[0].destAddresses = "host6"
*.host3.app[0].source.packetNameFormat = "%M-%m-%c"
*.host3.app[0].source.displayStringTextFormat = "sent %p pk (%l)"
*.host3.app[0].messageLength = 15B
*.host3.app[0].sendInterval = 1ms
*.host3.app[0].startTime = 500us
*.host3.app[0].stopTime = 700us
*.host3.app[0].display-name = "type2_0"
*.host3.app[0].destPort = 1000
*.host3.app[1].typename = "UdpBasicApp"
*.host3.app[1].destAddresses = "host6"
*.host3.app[1].source.packetNameFormat = "%M-%m-%c"
*.host3.app[1].source.displayStringTextFormat = "sent %p pk (%l)"
*.host3.app[1].messageLength = 15B
*.host3.app[1].sendInterval = 1ms
*.host3.app[1].startTime = 800us
*.host3.app[1].stopTime = 3000us
*.host3.app[1].display-name = "type2_0"
*.host3.app[1].destPort = 1000
*.host3.app[2].typename = "UdpBasicApp"
*.host3.app[2].destAddresses = "host6"
*.host3.app[2].source.packetNameFormat = "%M-%m-%c"
*.host3.app[2].source.displayStringTextFormat = "sent %p pk (%l)"
*.host3.app[2].messageLength = 15B
*.host3.app[2].sendInterval = 1ms
*.host3.app[2].startTime = 3600us
*.host3.app[2].stopTime = 4400us
*.host3.app[2].display-name = "type2_0"
*.host3.app[2].destPort = 1000
*.host3.app[3].typename = "UdpBasicApp"
*.host3.app[3].destAddresses = "host6"
*.host3.app[3].source.packetNameFormat = "%M-%m-%c"
*.host3.app[3].source.displayStringTextFormat = "sent %p pk (%l)"
*.host3.app[3].messageLength = 15B
*.host3.app[3].sendInterval = 1ms
*.host3.app[3].startTime = 4600us
*.host3.app[3].stopTime = 4800us
*.host3.app[3].display-name = "type2_0"
*.host3.app[3].destPort = 1000
*.host3.app[4].typename = "UdpBasicApp"
*.host3.app[4].destAddresses = "host6"
*.host3.app[4].source.packetNameFormat = "%M-%m-%c"
*.host3.app[4].source.displayStringTextFormat = "sent %p pk (%l)"
*.host3.app[4].messageLength = 15B
*.host3.app[4].sendInterval = 1ms
*.host3.app[4].startTime = 4900us
*.host3.app[4].stopTime = 7500us
*.host3.app[4].display-name = "type2_0"
*.host3.app[4].destPort = 1000
*.host3.app[5].typename = "UdpBasicApp"
*.host3.app[5].destAddresses = "host6"
*.host3.app[5].source.packetNameFormat = "%M-%m-%c"
*.host3.app[5].source.displayStringTextFormat = "sent %p pk (%l)"
*.host3.app[5].messageLength = 15B
*.host3.app[5].sendInterval = 1ms
*.host3.app[5].startTime = 8800us
*.host3.app[5].stopTime = 9400us
*.host3.app[5].display-name = "type2_0"
*.host3.app[5].destPort = 1000
*.host3.app[6].typename = "UdpBasicApp"
*.host3.app[6].destAddresses = "host6"
*.host3.app[6].source.packetNameFormat = "%M-%m-%c"
*.host3.app[6].source.displayStringTextFormat = "sent %p pk (%l)"
*.host3.app[6].messageLength = 15B
*.host3.app[6].sendInterval = 1ms
*.host3.app[6].startTime = 9600us
*.host3.app[6].stopTime = 10000us
*.host3.app[6].display-name = "type2_0"
*.host3.app[6].destPort = 1000
*.host3.app[7].typename = "UdpBasicApp"
*.host3.app[7].destAddresses = "host2"
*.host3.app[7].source.packetNameFormat = "%M-%m-%c"
*.host3.app[7].source.displayStringTextFormat = "sent %p pk (%l)"
*.host3.app[7].messageLength = 23B
*.host3.app[7].sendInterval = 1ms
*.host3.app[7].startTime = 100us
*.host3.app[7].stopTime = 1000us
*.host3.app[7].display-name = "type2_1"
*.host3.app[7].destPort = 1001
*.host3.app[8].typename = "UdpBasicApp"
*.host3.app[8].destAddresses = "host2"
*.host3.app[8].source.packetNameFormat = "%M-%m-%c"
*.host3.app[8].source.displayStringTextFormat = "sent %p pk (%l)"
*.host3.app[8].messageLength = 23B
*.host3.app[8].sendInterval = 1ms
*.host3.app[8].startTime = 2700us
*.host3.app[8].stopTime = 3900us
*.host3.app[8].display-name = "type2_1"
*.host3.app[8].destPort = 1001
*.host3.app[9].typename = "UdpBasicApp"
*.host3.app[9].destAddresses = "host2"
*.host3.app[9].source.packetNameFormat = "%M-%m-%c"
*.host3.app[9].source.displayStringTextFormat = "sent %p pk (%l)"
*.host3.app[9].messageLength = 23B
*.host3.app[9].sendInterval = 1ms
*.host3.app[9].startTime = 4300us
*.host3.app[9].stopTime = 4600us
*.host3.app[9].display-name = "type2_1"
*.host3.app[9].destPort = 1001
*.host3.app[10].typename = "UdpBasicApp"
*.host3.app[10].destAddresses = "host2"
*.host3.app[10].source.packetNameFormat = "%M-%m-%c"
*.host3.app[10].source.displayStringTextFormat = "sent %p pk (%l)"
*.host3.app[10].messageLength = 23B
*.host3.app[10].sendInterval = 1ms
*.host3.app[10].startTime = 4900us
*.host3.app[10].stopTime = 5600us
*.host3.app[10].display-name = "type2_1"
*.host3.app[10].destPort = 1001
*.host3.app[11].typename = "UdpBasicApp"
*.host3.app[11].destAddresses = "host2"
*.host3.app[11].source.packetNameFormat = "%M-%m-%c"
*.host3.app[11].source.displayStringTextFormat = "sent %p pk (%l)"
*.host3.app[11].messageLength = 23B
*.host3.app[11].sendInterval = 1ms
*.host3.app[11].startTime = 6700us
*.host3.app[11].stopTime = 6900us
*.host3.app[11].display-name = "type2_1"
*.host3.app[11].destPort = 1001
*.host3.app[12].typename = "UdpBasicApp"
*.host3.app[12].destAddresses = "host2"
*.host3.app[12].source.packetNameFormat = "%M-%m-%c"
*.host3.app[12].source.displayStringTextFormat = "sent %p pk (%l)"
*.host3.app[12].messageLength = 23B
*.host3.app[12].sendInterval = 1ms
*.host3.app[12].startTime = 7100us
*.host3.app[12].stopTime = 8500us
*.host3.app[12].display-name = "type2_1"
*.host3.app[12].destPort = 1001
*.host3.app[13].typename = "UdpBasicApp"
*.host3.app[13].destAddresses = "host2"
*.host3.app[13].source.packetNameFormat = "%M-%m-%c"
*.host3.app[13].source.displayStringTextFormat = "sent %p pk (%l)"
*.host3.app[13].messageLength = 23B
*.host3.app[13].sendInterval = 1ms
*.host3.app[13].startTime = 9500us
*.host3.app[13].stopTime = 9700us
*.host3.app[13].display-name = "type2_1"
*.host3.app[13].destPort = 1001
*.host3.app[14].typename = "UdpBasicApp"
*.host3.app[14].destAddresses = "host2"
*.host3.app[14].source.packetNameFormat = "%M-%m-%c"
*.host3.app[14].source.displayStringTextFormat = "sent %p pk (%l)"
*.host3.app[14].messageLength = 23B
*.host3.app[14].sendInterval = 1ms
*.host3.app[14].startTime = 9800us
*.host3.app[14].stopTime = 10000us
*.host3.app[14].display-name = "type2_1"
*.host3.app[14].destPort = 1001
*.host3.app[15].typename = "UdpSinkApp"
*.host3.app[15].io.localPort = 1000
*.host3.app[16].typename = "UdpSinkApp"
*.host3.app[16].io.localPort = 1001
*.host3.app[17].typename = "UdpBasicApp"
*.host3.app[17].destAddresses = "host6"
*.host3.app[17].source.packetNameFormat = "%M-%m-%c"
*.host3.app[17].source.displayStringTextFormat = "sent %p pk (%l)"
*.host3.app[17].messageLength = 21B
*.host3.app[17].sendInterval = 1ms
*.host3.app[17].startTime = 600us
*.host3.app[17].stopTime = 2000us
*.host3.app[17].display-name = "type2_6"
*.host3.app[17].destPort = 1002
*.host3.app[18].typename = "UdpBasicApp"
*.host3.app[18].destAddresses = "host6"
*.host3.app[18].source.packetNameFormat = "%M-%m-%c"
*.host3.app[18].source.displayStringTextFormat = "sent %p pk (%l)"
*.host3.app[18].messageLength = 21B
*.host3.app[18].sendInterval = 1ms
*.host3.app[18].startTime = 2300us
*.host3.app[18].stopTime = 2700us
*.host3.app[18].display-name = "type2_6"
*.host3.app[18].destPort = 1002
*.host3.app[19].typename = "UdpBasicApp"
*.host3.app[19].destAddresses = "host6"
*.host3.app[19].source.packetNameFormat = "%M-%m-%c"
*.host3.app[19].source.displayStringTextFormat = "sent %p pk (%l)"
*.host3.app[19].messageLength = 21B
*.host3.app[19].sendInterval = 1ms
*.host3.app[19].startTime = 5900us
*.host3.app[19].stopTime = 6300us
*.host3.app[19].display-name = "type2_6"
*.host3.app[19].destPort = 1002
*.host3.app[20].typename = "UdpBasicApp"
*.host3.app[20].destAddresses = "host6"
*.host3.app[20].source.packetNameFormat = "%M-%m-%c"
*.host3.app[20].source.displayStringTextFormat = "sent %p pk (%l)"
*.host3.app[20].messageLength = 21B
*.host3.app[20].sendInterval = 1ms
*.host3.app[20].startTime = 6500us
*.host3.app[20].stopTime = 6800us
*.host3.app[20].display-name = "type2_6"
*.host3.app[20].destPort = 1002
*.host3.app[21].typename = "UdpBasicApp"
*.host3.app[21].destAddresses = "host6"
*.host3.app[21].source.packetNameFormat = "%M-%m-%c"
*.host3.app[21].source.displayStringTextFormat = "sent %p pk (%l)"
*.host3.app[21].messageLength = 21B
*.host3.app[21].sendInterval = 1ms
*.host3.app[21].startTime = 7200us
*.host3.app[21].stopTime = 7700us
*.host3.app[21].display-name = "type2_6"
*.host3.app[21].destPort = 1002
*.host3.app[22].typename = "UdpBasicApp"
*.host3.app[22].destAddresses = "host6"
*.host3.app[22].source.packetNameFormat = "%M-%m-%c"
*.host3.app[22].source.displayStringTextFormat = "sent %p pk (%l)"
*.host3.app[22].messageLength = 21B
*.host3.app[22].sendInterval = 1ms
*.host3.app[22].startTime = 7800us
*.host3.app[22].stopTime = 8100us
*.host3.app[22].display-name = "type2_6"
*.host3.app[22].destPort = 1002
*.host3.app[23].typename = "UdpBasicApp"
*.host3.app[23].destAddresses = "host6"
*.host3.app[23].source.packetNameFormat = "%M-%m-%c"
*.host3.app[23].source.displayStringTextFormat = "sent %p pk (%l)"
*.host3.app[23].messageLength = 21B
*.host3.app[23].sendInterval = 1ms
*.host3.app[23].startTime = 8400us
*.host3.app[23].stopTime = 8500us
*.host3.app[23].display-name = "type2_6"
*.host3.app[23].destPort = 1002
*.host3.app[24].typename = "UdpBasicApp"
*.host3.app[24].destAddresses = "host6"
*.host3.app[24].source.packetNameFormat = "%M-%m-%c"
*.host3.app[24].source.displayStringTextFormat = "sent %p pk (%l)"
*.host3.app[24].messageLength = 21B
*.host3.app[24].sendInterval = 1ms
*.host3.app[24].startTime = 8900us
*.host3.app[24].stopTime = 9700us
*.host3.app[24].display-name = "type2_6"
*.host3.app[24].destPort = 1002
*.host4.numApps = 5
*.host4.app[0].typename = "UdpBasicApp"
*.host4.app[0].destAddresses = "host2"
*.host4.app[0].source.packetNameFormat = "%M-%m-%c"
*.host4.app[0].source.displayStringTextFormat = "sent %p pk (%l)"
*.host4.app[0].messageLength = 14B
*.host4.app[0].sendInterval = 1ms
*.host4.app[0].startTime = 300us
*.host4.app[0].stopTime = 1700us
*.host4.app[0].display-name = "type2_7"
*.host4.app[0].destPort = 1003
*.host4.app[1].typename = "UdpBasicApp"
*.host4.app[1].destAddresses = "host2"
*.host4.app[1].source.packetNameFormat = "%M-%m-%c"
*.host4.app[1].source.displayStringTextFormat = "sent %p pk (%l)"
*.host4.app[1].messageLength = 14B
*.host4.app[1].sendInterval = 1ms
*.host4.app[1].startTime = 1900us
*.host4.app[1].stopTime = 2200us
*.host4.app[1].display-name = "type2_7"
*.host4.app[1].destPort = 1003
*.host4.app[2].typename = "UdpBasicApp"
*.host4.app[2].destAddresses = "host2"
*.host4.app[2].source.packetNameFormat = "%M-%m-%c"
*.host4.app[2].source.displayStringTextFormat = "sent %p pk (%l)"
*.host4.app[2].messageLength = 14B
*.host4.app[2].sendInterval = 1ms
*.host4.app[2].startTime = 2600us
*.host4.app[2].stopTime = 4400us
*.host4.app[2].display-name = "type2_7"
*.host4.app[2].destPort = 1003
*.host4.app[3].typename = "UdpBasicApp"
*.host4.app[3].destAddresses = "host2"
*.host4.app[3].source.packetNameFormat = "%M-%m-%c"
*.host4.app[3].source.displayStringTextFormat = "sent %p pk (%l)"
*.host4.app[3].messageLength = 14B
*.host4.app[3].sendInterval = 1ms
*.host4.app[3].startTime = 6500us
*.host4.app[3].stopTime = 6800us
*.host4.app[3].display-name = "type2_7"
*.host4.app[3].destPort = 1003
*.host4.app[4].typename = "UdpBasicApp"
*.host4.app[4].destAddresses = "host2"
*.host4.app[4].source.packetNameFormat = "%M-%m-%c"
*.host4.app[4].source.displayStringTextFormat = "sent %p pk (%l)"
*.host4.app[4].messageLength = 14B
*.host4.app[4].sendInterval = 1ms
*.host4.app[4].startTime = 9500us
*.host4.app[4].stopTime = 9800us
*.host4.app[4].display-name = "type2_7"
*.host4.app[4].destPort = 1003
*.host5.numApps = 8
*.host5.app[0].typename = "UdpSourceApp"
*.host5.app[0].io.destAddress = "host2"
*.host5.app[0].source.packetNameFormat = "%M-%m-%c"
*.host5.app[0].source.displayStringTextFormat = "sent %p pk (%l)"
*.host5.app[0].source.packetLength = 23B
*.host5.app[0].source.productionInterval = 1ms
*.host5.app[0].display-name = "type1_0"
*.host5.app[0].io.destPort = 1000
*.host5.app[1].typename = "UdpBasicApp"
*.host5.app[1].destAddresses = "host3"
*.host5.app[1].source.packetNameFormat = "%M-%m-%c"
*.host5.app[1].source.displayStringTextFormat = "sent %p pk (%l)"
*.host5.app[1].messageLength = 23B
*.host5.app[1].sendInterval = 1ms
*.host5.app[1].startTime = 300us
*.host5.app[1].stopTime = 400us
*.host5.app[1].display-name = "type2_2"
*.host5.app[1].destPort = 1000
*.host5.app[2].typename = "UdpBasicApp"
*.host5.app[2].destAddresses = "host3"
*.host5.app[2].source.packetNameFormat = "%M-%m-%c"
*.host5.app[2].source.displayStringTextFormat = "sent %p pk (%l)"
*.host5.app[2].messageLength = 23B
*.host5.app[2].sendInterval = 1ms
*.host5.app[2].startTime = 500us
*.host5.app[2].stopTime = 1500us
*.host5.app[2].display-name = "type2_2"
*.host5.app[2].destPort = 1000
*.host5.app[3].typename = "UdpBasicApp"
*.host5.app[3].destAddresses = "host3"
*.host5.app[3].source.packetNameFormat = "%M-%m-%c"
*.host5.app[3].source.displayStringTextFormat = "sent %p pk (%l)"
*.host5.app[3].messageLength = 23B
*.host5.app[3].sendInterval = 1ms
*.host5.app[3].startTime = 4100us
*.host5.app[3].stopTime = 4500us
*.host5.app[3].display-name = "type2_2"
*.host5.app[3].destPort = 1000
*.host5.app[4].typename = "UdpBasicApp"
*.host5.app[4].destAddresses = "host3"
*.host5.app[4].source.packetNameFormat = "%M-%m-%c"
*.host5.app[4].source.displayStringTextFormat = "sent %p pk (%l)"
*.host5.app[4].messageLength = 23B
*.host5.app[4].sendInterval = 1ms
*.host5.app[4].startTime = 5200us
*.host5.app[4].stopTime = 5600us
*.host5.app[4].display-name = "type2_2"
*.host5.app[4].destPort = 1000
*.host5.app[5].typename = "UdpBasicApp"
*.host5.app[5].destAddresses = "host3"
*.host5.app[5].source.packetNameFormat = "%M-%m-%c"
*.host5.app[5].source.displayStringTextFormat = "sent %p pk (%l)"
*.host5.app[5].messageLength = 23B
*.host5.app[5].sendInterval = 1ms
*.host5.app[5].startTime = 6700us
*.host5.app[5].stopTime = 7400us
*.host5.app[5].display-name = "type2_2"
*.host5.app[5].destPort = 1000
*.host5.app[6].typename = "UdpBasicApp"
*.host5.app[6].destAddresses = "host3"
*.host5.app[6].source.packetNameFormat = "%M-%m-%c"
*.host5.app[6].source.displayStringTextFormat = "sent %p pk (%l)"
*.host5.app[6].messageLength = 23B
*.host5.app[6].sendInterval = 1ms
*.host5.app[6].startTime = 7900us
*.host5.app[6].stopTime = 8100us
*.host5.app[6].display-name = "type2_2"
*.host5.app[6].destPort = 1000
*.host5.app[7].typename = "UdpBasicApp"
*.host5.app[7].destAddresses = "host3"
*.host5.app[7].source.packetNameFormat = "%M-%m-%c"
*.host5.app[7].source.displayStringTextFormat = "sent %p pk (%l)"
*.host5.app[7].messageLength = 23B
*.host5.app[7].sendInterval = 1ms
*.host5.app[7].startTime = 8600us
*.host5.app[7].stopTime = 8800us
*.host5.app[7].display-name = "type2_2"
*.host5.app[7].destPort = 1000
*.host6.numApps = 3
*.host6.app[0].typename = "UdpSinkApp"
*.host6.app[0].io.localPort = 1000
*.host6.app[1].typename = "UdpSinkApp"
*.host6.app[1].io.localPort = 1001
*.host6.app[2].typename = "UdpSinkApp"
*.host6.app[2].io.localPort = 1002
*.host7.numApps = 5
*.host7.app[0].typename = "UdpBasicApp"
*.host7.app[0].destAddresses = "host2"
*.host7.app[0].source.packetNameFormat = "%M-%m-%c"
*.host7.app[0].source.displayStringTextFormat = "sent %p pk (%l)"
*.host7.app[0].messageLength = 15B
*.host7.app[0].sendInterval = 1ms
*.host7.app[0].startTime = 0us
*.host7.app[0].stopTime = 1700us
*.host7.app[0].display-name = "type2_3"
*.host7.app[0].destPort = 1002
*.host7.app[1].typename = "UdpBasicApp"
*.host7.app[1].destAddresses = "host2"
*.host7.app[1].source.packetNameFormat = "%M-%m-%c"
*.host7.app[1].source.displayStringTextFormat = "sent %p pk (%l)"
*.host7.app[1].messageLength = 15B
*.host7.app[1].sendInterval = 1ms
*.host7.app[1].startTime = 2800us
*.host7.app[1].stopTime = 3400us
*.host7.app[1].display-name = "type2_3"
*.host7.app[1].destPort = 1002
*.host7.app[2].typename = "UdpBasicApp"
*.host7.app[2].destAddresses = "host2"
*.host7.app[2].source.packetNameFormat = "%M-%m-%c"
*.host7.app[2].source.displayStringTextFormat = "sent %p pk (%l)"
*.host7.app[2].messageLength = 15B
*.host7.app[2].sendInterval = 1ms
*.host7.app[2].startTime = 5200us
*.host7.app[2].stopTime = 5700us
*.host7.app[2].display-name = "type2_3"
*.host7.app[2].destPort = 1002
*.host7.app[3].typename = "UdpBasicApp"
*.host7.app[3].destAddresses = "host2"
*.host7.app[3].source.packetNameFormat = "%M-%m-%c"
*.host7.app[3].source.displayStringTextFormat = "sent %p pk (%l)"
*.host7.app[3].messageLength = 15B
*.host7.app[3].sendInterval = 1ms
*.host7.app[3].startTime = 6500us
*.host7.app[3].stopTime = 7800us
*.host7.app[3].display-name = "type2_3"
*.host7.app[3].destPort = 1002
*.host7.app[4].typename = "UdpBasicApp"
*.host7.app[4].destAddresses = "host2"
*.host7.app[4].source.packetNameFormat = "%M-%m-%c"
*.host7.app[4].source.displayStringTextFormat = "sent %p pk (%l)"
*.host7.app[4].messageLength = 15B
*.host7.app[4].sendInterval = 1ms
*.host7.app[4].startTime = 8900us
*.host7.app[4].stopTime = 9200us
*.host7.app[4].display-name = "type2_3"
*.host7.app[4].destPort = 1002
*.host8.numApps = 0
*.host9.numApps = 1
*.host9.app[0].typename = "UdpSourceApp"
*.host9.app[0].io.destAddress = "host1"
*.host9.app[0].source.packetNameFormat = "%M-%m-%c"
*.host9.app[0].source.displayStringTextFormat = "sent %p pk (%l)"
*.host9.app[0].source.packetLength = 24B
*.host9.app[0].source.productionInterval = 1ms
*.host9.app[0].display-name = "type1_1"
*.host9.app[0].io.destPort = 1000
*.streamRedundancyConfigurator.configuration = [
	{
		name: "S1-0",
		packetFilter: "*-type1_0-*",
		source: "host5",
		destination: "host2",
		trees: [[["host5", "switch5", "switch3", "switch0", "switch6", "switch2", "host2"]]]
	},
	{
		name: "S1-1",
		packetFilter: "*-type1_1-*",
		source: "host9",
		destination: "host1",
		trees: [[["host9", "switch9", "switch4", "switch2", "switch1", "host1"]]]
	},
	{
		name: "S2-0",
		packetFilter: "*-type2_0-*",
		source: "host3",
		destination: "host6",
		trees: [[["host3", "switch3", "switch2", "switch9", "switch6", "host6"]]]
	},
	{
		name: "S2-1",
		packetFilter: "*-type2_1-*",
		source: "host3",
		destination: "host2",
		trees: [[["host3", "switch3", "switch2", "host2"]]]
	},
	{
		name: "S2-2",
		packetFilter: "*-type2_2-*",
		source: "host5",
		destination: "host3",
		trees: [[["host5", "switch5", "switch3", "host3"]]]
	},
	{
		name: "S2-3",
		packetFilter: "*-type2_3-*",
		source: "host7",
		destination: "host2",
		trees: [[["host7", "switch7", "switch1", "switch5", "switch3", "switch2", "host2"]]]
	},
	{
		name: "S2-4",
		packetFilter: "*-type2_4-*",
		source: "host2",
		destination: "host3",
		trees: [[["host2", "switch2", "switch1", "switch4", "switch3", "host3"]]]
	},
	{
		name: "S2-5",
		packetFilter: "*-type2_5-*",
		source: "host1",
		destination: "host6",
		trees: [[["host1",
	 "switch1",
	 "switch5",
	 "switch3",
	 "switch2",
	 "switch9",
	 "switch6",
	 "host6"]]]
	},
	{
		name: "S2-6",
		packetFilter: "*-type2_6-*",
		source: "host3",
		destination: "host6",
		trees: [[["host3", "switch3", "switch2", "switch9", "switch6", "host6"]]]
	},
	{
		name: "S2-7",
		packetFilter: "*-type2_7-*",
		source: "host4",
		destination: "host2",
		trees: [[["host4", "switch4", "switch3", "switch8", "switch0", "switch2", "host2"]]]
	}]
	

