[General]
network = TSN_multipath
sim-time-limit = 100ms
*.macForwardingTableConfigurator.typename = ""
*.*.hasStreamRedundancy = true
*.*.bridging.streamRelay.typename = "StreamRelayLayer"
*.*.bridging.streamCoder.typename = "StreamCoderLayer"
*.streamRedundancyConfigurator.typename = "StreamRedundancyConfigurator"
*.host0.eth[0].bitrate = 1000Mbps
*.switch0.eth[0].bitrate = 1000Mbps
*.switch0.eth[1].bitrate = 2300Mbps
*.switch0.eth[2].bitrate = 1800Mbps
*.switch0.eth[3].bitrate = 2200Mbps
*.switch0.eth[4].bitrate = 2200Mbps
*.switch0.eth[5].bitrate = 1300Mbps
*.switch0.eth[6].bitrate = 1300Mbps
*.switch0.eth[7].bitrate = 2000Mbps
*.switch0.eth[8].bitrate = 1400Mbps
*.switch0.eth[9].bitrate = 2000Mbps
*.switch0.eth[10].bitrate = 1400Mbps
*.host1.eth[0].bitrate = 1000Mbps
*.switch1.eth[0].bitrate = 1000Mbps
*.switch1.eth[1].bitrate = 2300Mbps
*.switch1.eth[2].bitrate = 1300Mbps
*.switch1.eth[3].bitrate = 1300Mbps
*.switch1.eth[4].bitrate = 2400Mbps
*.switch1.eth[5].bitrate = 2400Mbps
*.switch1.eth[6].bitrate = 2100Mbps
*.switch1.eth[7].bitrate = 2100Mbps
*.switch1.eth[8].bitrate = 1500Mbps
*.switch1.eth[9].bitrate = 1600Mbps
*.switch1.eth[10].bitrate = 2400Mbps
*.switch1.eth[11].bitrate = 1200Mbps
*.switch1.eth[12].bitrate = 2000Mbps
*.host2.eth[0].bitrate = 1000Mbps
*.switch2.eth[0].bitrate = 1000Mbps
*.switch2.eth[1].bitrate = 1800Mbps
*.switch2.eth[2].bitrate = 2400Mbps
*.switch2.eth[3].bitrate = 1200Mbps
*.switch2.eth[4].bitrate = 2400Mbps
*.switch2.eth[5].bitrate = 1800Mbps
*.switch2.eth[6].bitrate = 2000Mbps
*.host3.eth[0].bitrate = 1000Mbps
*.switch3.eth[0].bitrate = 1000Mbps
*.switch3.eth[1].bitrate = 1300Mbps
*.switch3.eth[2].bitrate = 1300Mbps
*.switch3.eth[3].bitrate = 1200Mbps
*.switch3.eth[4].bitrate = 1300Mbps
*.switch3.eth[5].bitrate = 1700Mbps
*.switch3.eth[6].bitrate = 1300Mbps
*.switch3.eth[7].bitrate = 2000Mbps
*.switch3.eth[8].bitrate = 1800Mbps
*.switch3.eth[9].bitrate = 1600Mbps
*.switch3.eth[10].bitrate = 1600Mbps
*.host4.eth[0].bitrate = 1000Mbps
*.switch4.eth[0].bitrate = 1000Mbps
*.switch4.eth[1].bitrate = 2400Mbps
*.switch4.eth[2].bitrate = 2400Mbps
*.switch4.eth[3].bitrate = 1300Mbps
*.switch4.eth[4].bitrate = 2400Mbps
*.switch4.eth[5].bitrate = 1500Mbps
*.switch4.eth[6].bitrate = 2000Mbps
*.switch4.eth[7].bitrate = 1200Mbps
*.switch4.eth[8].bitrate = 1200Mbps
*.host5.eth[0].bitrate = 1000Mbps
*.switch5.eth[0].bitrate = 1000Mbps
*.switch5.eth[1].bitrate = 2200Mbps
*.switch5.eth[2].bitrate = 2400Mbps
*.switch5.eth[3].bitrate = 1700Mbps
*.switch5.eth[4].bitrate = 1500Mbps
*.switch5.eth[5].bitrate = 2100Mbps
*.switch5.eth[6].bitrate = 1700Mbps
*.host6.eth[0].bitrate = 1000Mbps
*.switch6.eth[0].bitrate = 1000Mbps
*.switch6.eth[1].bitrate = 2200Mbps
*.switch6.eth[2].bitrate = 2100Mbps
*.switch6.eth[3].bitrate = 1300Mbps
*.switch6.eth[4].bitrate = 2000Mbps
*.switch6.eth[5].bitrate = 2000Mbps
*.switch6.eth[6].bitrate = 2400Mbps
*.switch6.eth[7].bitrate = 1800Mbps
*.switch6.eth[8].bitrate = 1600Mbps
*.switch6.eth[9].bitrate = 1400Mbps
*.switch6.eth[10].bitrate = 1300Mbps
*.switch6.eth[11].bitrate = 2000Mbps
*.switch6.eth[12].bitrate = 2400Mbps
*.host7.eth[0].bitrate = 1000Mbps
*.switch7.eth[0].bitrate = 1000Mbps
*.switch7.eth[1].bitrate = 2100Mbps
*.switch7.eth[2].bitrate = 2000Mbps
*.switch7.eth[3].bitrate = 1400Mbps
*.switch7.eth[4].bitrate = 2400Mbps
*.switch7.eth[5].bitrate = 2000Mbps
*.host8.eth[0].bitrate = 1000Mbps
*.switch8.eth[0].bitrate = 1000Mbps
*.switch8.eth[1].bitrate = 1500Mbps
*.switch8.eth[2].bitrate = 1800Mbps
*.switch8.eth[3].bitrate = 1400Mbps
*.switch8.eth[4].bitrate = 2000Mbps
*.switch8.eth[5].bitrate = 1200Mbps
*.switch8.eth[6].bitrate = 2000Mbps
*.switch8.eth[7].bitrate = 1200Mbps
*.switch8.eth[8].bitrate = 2000Mbps
*.switch8.eth[9].bitrate = 2400Mbps
*.switch8.eth[10].bitrate = 2400Mbps
*.switch8.eth[11].bitrate = 2100Mbps
*.host9.eth[0].bitrate = 1000Mbps
*.switch9.eth[0].bitrate = 1000Mbps
*.switch9.eth[1].bitrate = 1600Mbps
*.switch9.eth[2].bitrate = 1600Mbps
*.switch9.eth[3].bitrate = 1200Mbps
*.switch9.eth[4].bitrate = 2100Mbps
*.switch9.eth[5].bitrate = 1300Mbps
*.switch9.eth[6].bitrate = 2400Mbps
*.switch9.eth[7].bitrate = 1400Mbps
*.switch9.eth[8].bitrate = 2000Mbps
*.switch9.eth[9].bitrate = 1700Mbps
*.switch9.eth[10].bitrate = 2400Mbps
*.switch9.eth[11].bitrate = 2000Mbps
*.switch9.eth[12].bitrate = 2100Mbps
*.host0.numApps = 0
*.host1.numApps = 15
*.host1.app[0].typename = "UdpSinkApp"
*.host1.app[0].io.localPort = 1000
*.host1.app[1].typename = "UdpBasicApp"
*.host1.app[1].destAddresses = "host6"
*.host1.app[1].source.packetNameFormat = "%M-%m-%c"
*.host1.app[1].source.displayStringTextFormat = "sent %p pk (%l)"
*.host1.app[1].messageLength = 16B
*.host1.app[1].sendInterval = 1ms
*.host1.app[1].startTime = 13ms
*.host1.app[1].stopTime = 14ms
*.host1.app[1].display-name = "type2_1"
*.host1.app[1].destPort = 1000
*.host1.app[2].typename = "UdpBasicApp"
*.host1.app[2].destAddresses = "host6"
*.host1.app[2].source.packetNameFormat = "%M-%m-%c"
*.host1.app[2].source.displayStringTextFormat = "sent %p pk (%l)"
*.host1.app[2].messageLength = 16B
*.host1.app[2].sendInterval = 1ms
*.host1.app[2].startTime = 17ms
*.host1.app[2].stopTime = 18ms
*.host1.app[2].display-name = "type2_1"
*.host1.app[2].destPort = 1000
*.host1.app[3].typename = "UdpBasicApp"
*.host1.app[3].destAddresses = "host6"
*.host1.app[3].source.packetNameFormat = "%M-%m-%c"
*.host1.app[3].source.displayStringTextFormat = "sent %p pk (%l)"
*.host1.app[3].messageLength = 16B
*.host1.app[3].sendInterval = 1ms
*.host1.app[3].startTime = 19ms
*.host1.app[3].stopTime = 25ms
*.host1.app[3].display-name = "type2_1"
*.host1.app[3].destPort = 1000
*.host1.app[4].typename = "UdpBasicApp"
*.host1.app[4].destAddresses = "host6"
*.host1.app[4].source.packetNameFormat = "%M-%m-%c"
*.host1.app[4].source.displayStringTextFormat = "sent %p pk (%l)"
*.host1.app[4].messageLength = 16B
*.host1.app[4].sendInterval = 1ms
*.host1.app[4].startTime = 29ms
*.host1.app[4].stopTime = 33ms
*.host1.app[4].display-name = "type2_1"
*.host1.app[4].destPort = 1000
*.host1.app[5].typename = "UdpBasicApp"
*.host1.app[5].destAddresses = "host6"
*.host1.app[5].source.packetNameFormat = "%M-%m-%c"
*.host1.app[5].source.displayStringTextFormat = "sent %p pk (%l)"
*.host1.app[5].messageLength = 16B
*.host1.app[5].sendInterval = 1ms
*.host1.app[5].startTime = 46ms
*.host1.app[5].stopTime = 55ms
*.host1.app[5].display-name = "type2_1"
*.host1.app[5].destPort = 1000
*.host1.app[6].typename = "UdpBasicApp"
*.host1.app[6].destAddresses = "host6"
*.host1.app[6].source.packetNameFormat = "%M-%m-%c"
*.host1.app[6].source.displayStringTextFormat = "sent %p pk (%l)"
*.host1.app[6].messageLength = 16B
*.host1.app[6].sendInterval = 1ms
*.host1.app[6].startTime = 63ms
*.host1.app[6].stopTime = 70ms
*.host1.app[6].display-name = "type2_1"
*.host1.app[6].destPort = 1000
*.host1.app[7].typename = "UdpBasicApp"
*.host1.app[7].destAddresses = "host6"
*.host1.app[7].source.packetNameFormat = "%M-%m-%c"
*.host1.app[7].source.displayStringTextFormat = "sent %p pk (%l)"
*.host1.app[7].messageLength = 16B
*.host1.app[7].sendInterval = 1ms
*.host1.app[7].startTime = 72ms
*.host1.app[7].stopTime = 80ms
*.host1.app[7].display-name = "type2_1"
*.host1.app[7].destPort = 1000
*.host1.app[8].typename = "UdpBasicApp"
*.host1.app[8].destAddresses = "host6"
*.host1.app[8].source.packetNameFormat = "%M-%m-%c"
*.host1.app[8].source.displayStringTextFormat = "sent %p pk (%l)"
*.host1.app[8].messageLength = 16B
*.host1.app[8].sendInterval = 1ms
*.host1.app[8].startTime = 83ms
*.host1.app[8].stopTime = 84ms
*.host1.app[8].display-name = "type2_1"
*.host1.app[8].destPort = 1000
*.host1.app[9].typename = "UdpBasicApp"
*.host1.app[9].destAddresses = "host6"
*.host1.app[9].source.packetNameFormat = "%M-%m-%c"
*.host1.app[9].source.displayStringTextFormat = "sent %p pk (%l)"
*.host1.app[9].messageLength = 16B
*.host1.app[9].sendInterval = 1ms
*.host1.app[9].startTime = 91ms
*.host1.app[9].stopTime = 100ms
*.host1.app[9].display-name = "type2_1"
*.host1.app[9].destPort = 1000
*.host1.app[10].typename = "UdpBasicApp"
*.host1.app[10].destAddresses = "host9"
*.host1.app[10].source.packetNameFormat = "%M-%m-%c"
*.host1.app[10].source.displayStringTextFormat = "sent %p pk (%l)"
*.host1.app[10].messageLength = 14B
*.host1.app[10].sendInterval = 1ms
*.host1.app[10].startTime = 0ms
*.host1.app[10].stopTime = 7ms
*.host1.app[10].display-name = "type2_2"
*.host1.app[10].destPort = 1000
*.host1.app[11].typename = "UdpBasicApp"
*.host1.app[11].destAddresses = "host9"
*.host1.app[11].source.packetNameFormat = "%M-%m-%c"
*.host1.app[11].source.displayStringTextFormat = "sent %p pk (%l)"
*.host1.app[11].messageLength = 14B
*.host1.app[11].sendInterval = 1ms
*.host1.app[11].startTime = 15ms
*.host1.app[11].stopTime = 27ms
*.host1.app[11].display-name = "type2_2"
*.host1.app[11].destPort = 1000
*.host1.app[12].typename = "UdpBasicApp"
*.host1.app[12].destAddresses = "host9"
*.host1.app[12].source.packetNameFormat = "%M-%m-%c"
*.host1.app[12].source.displayStringTextFormat = "sent %p pk (%l)"
*.host1.app[12].messageLength = 14B
*.host1.app[12].sendInterval = 1ms
*.host1.app[12].startTime = 37ms
*.host1.app[12].stopTime = 61ms
*.host1.app[12].display-name = "type2_2"
*.host1.app[12].destPort = 1000
*.host1.app[13].typename = "UdpBasicApp"
*.host1.app[13].destAddresses = "host9"
*.host1.app[13].source.packetNameFormat = "%M-%m-%c"
*.host1.app[13].source.displayStringTextFormat = "sent %p pk (%l)"
*.host1.app[13].messageLength = 14B
*.host1.app[13].sendInterval = 1ms
*.host1.app[13].startTime = 66ms
*.host1.app[13].stopTime = 82ms
*.host1.app[13].display-name = "type2_2"
*.host1.app[13].destPort = 1000
*.host1.app[14].typename = "UdpBasicApp"
*.host1.app[14].destAddresses = "host9"
*.host1.app[14].source.packetNameFormat = "%M-%m-%c"
*.host1.app[14].source.displayStringTextFormat = "sent %p pk (%l)"
*.host1.app[14].messageLength = 14B
*.host1.app[14].sendInterval = 1ms
*.host1.app[14].startTime = 88ms
*.host1.app[14].stopTime = 100ms
*.host1.app[14].display-name = "type2_2"
*.host1.app[14].destPort = 1000
*.host2.numApps = 2
*.host2.app[0].typename = "UdpSourceApp"
*.host2.app[0].io.destAddress = "host1"
*.host2.app[0].source.packetNameFormat = "%M-%m-%c"
*.host2.app[0].source.displayStringTextFormat = "sent %p pk (%l)"
*.host2.app[0].source.packetLength = 17B
*.host2.app[0].source.productionInterval = 1ms
*.host2.app[0].display-name = "type1_0"
*.host2.app[0].io.destPort = 1000
*.host2.app[1].typename = "UdpSinkApp"
*.host2.app[1].io.localPort = 1000
*.host3.numApps = 1
*.host3.app[0].typename = "UdpSinkApp"
*.host3.app[0].io.localPort = 1000
*.host4.numApps = 5
*.host4.app[0].typename = "UdpBasicApp"
*.host4.app[0].destAddresses = "host5"
*.host4.app[0].source.packetNameFormat = "%M-%m-%c"
*.host4.app[0].source.displayStringTextFormat = "sent %p pk (%l)"
*.host4.app[0].messageLength = 14B
*.host4.app[0].sendInterval = 1ms
*.host4.app[0].startTime = 7ms
*.host4.app[0].stopTime = 9ms
*.host4.app[0].display-name = "type2_0"
*.host4.app[0].destPort = 1000
*.host4.app[1].typename = "UdpBasicApp"
*.host4.app[1].destAddresses = "host5"
*.host4.app[1].source.packetNameFormat = "%M-%m-%c"
*.host4.app[1].source.displayStringTextFormat = "sent %p pk (%l)"
*.host4.app[1].messageLength = 14B
*.host4.app[1].sendInterval = 1ms
*.host4.app[1].startTime = 15ms
*.host4.app[1].stopTime = 19ms
*.host4.app[1].display-name = "type2_0"
*.host4.app[1].destPort = 1000
*.host4.app[2].typename = "UdpBasicApp"
*.host4.app[2].destAddresses = "host5"
*.host4.app[2].source.packetNameFormat = "%M-%m-%c"
*.host4.app[2].source.displayStringTextFormat = "sent %p pk (%l)"
*.host4.app[2].messageLength = 14B
*.host4.app[2].sendInterval = 1ms
*.host4.app[2].startTime = 31ms
*.host4.app[2].stopTime = 42ms
*.host4.app[2].display-name = "type2_0"
*.host4.app[2].destPort = 1000
*.host4.app[3].typename = "UdpBasicApp"
*.host4.app[3].destAddresses = "host5"
*.host4.app[3].source.packetNameFormat = "%M-%m-%c"
*.host4.app[3].source.displayStringTextFormat = "sent %p pk (%l)"
*.host4.app[3].messageLength = 14B
*.host4.app[3].sendInterval = 1ms
*.host4.app[3].startTime = 48ms
*.host4.app[3].stopTime = 70ms
*.host4.app[3].display-name = "type2_0"
*.host4.app[3].destPort = 1000
*.host4.app[4].typename = "UdpSinkApp"
*.host4.app[4].io.localPort = 1000
*.host5.numApps = 2
*.host5.app[0].typename = "UdpSinkApp"
*.host5.app[0].io.localPort = 1000
*.host5.app[1].typename = "UdpSinkApp"
*.host5.app[1].io.localPort = 1001
*.host6.numApps = 6
*.host6.app[0].typename = "UdpSinkApp"
*.host6.app[0].io.localPort = 1000
*.host6.app[1].typename = "UdpBasicApp"
*.host6.app[1].destAddresses = "host7"
*.host6.app[1].source.packetNameFormat = "%M-%m-%c"
*.host6.app[1].source.displayStringTextFormat = "sent %p pk (%l)"
*.host6.app[1].messageLength = 19B
*.host6.app[1].sendInterval = 1ms
*.host6.app[1].startTime = 19ms
*.host6.app[1].stopTime = 42ms
*.host6.app[1].display-name = "type2_4"
*.host6.app[1].destPort = 1000
*.host6.app[2].typename = "UdpBasicApp"
*.host6.app[2].destAddresses = "host7"
*.host6.app[2].source.packetNameFormat = "%M-%m-%c"
*.host6.app[2].source.displayStringTextFormat = "sent %p pk (%l)"
*.host6.app[2].messageLength = 19B
*.host6.app[2].sendInterval = 1ms
*.host6.app[2].startTime = 43ms
*.host6.app[2].stopTime = 44ms
*.host6.app[2].display-name = "type2_4"
*.host6.app[2].destPort = 1000
*.host6.app[3].typename = "UdpBasicApp"
*.host6.app[3].destAddresses = "host7"
*.host6.app[3].source.packetNameFormat = "%M-%m-%c"
*.host6.app[3].source.displayStringTextFormat = "sent %p pk (%l)"
*.host6.app[3].messageLength = 19B
*.host6.app[3].sendInterval = 1ms
*.host6.app[3].startTime = 47ms
*.host6.app[3].stopTime = 56ms
*.host6.app[3].display-name = "type2_4"
*.host6.app[3].destPort = 1000
*.host6.app[4].typename = "UdpBasicApp"
*.host6.app[4].destAddresses = "host7"
*.host6.app[4].source.packetNameFormat = "%M-%m-%c"
*.host6.app[4].source.displayStringTextFormat = "sent %p pk (%l)"
*.host6.app[4].messageLength = 19B
*.host6.app[4].sendInterval = 1ms
*.host6.app[4].startTime = 60ms
*.host6.app[4].stopTime = 68ms
*.host6.app[4].display-name = "type2_4"
*.host6.app[4].destPort = 1000
*.host6.app[5].typename = "UdpBasicApp"
*.host6.app[5].destAddresses = "host7"
*.host6.app[5].source.packetNameFormat = "%M-%m-%c"
*.host6.app[5].source.displayStringTextFormat = "sent %p pk (%l)"
*.host6.app[5].messageLength = 19B
*.host6.app[5].sendInterval = 1ms
*.host6.app[5].startTime = 77ms
*.host6.app[5].stopTime = 93ms
*.host6.app[5].display-name = "type2_4"
*.host6.app[5].destPort = 1000
*.host7.numApps = 11
*.host7.app[0].typename = "UdpSourceApp"
*.host7.app[0].io.destAddress = "host2"
*.host7.app[0].source.packetNameFormat = "%M-%m-%c"
*.host7.app[0].source.displayStringTextFormat = "sent %p pk (%l)"
*.host7.app[0].source.packetLength = 13B
*.host7.app[0].source.productionInterval = 1ms
*.host7.app[0].display-name = "type1_1"
*.host7.app[0].io.destPort = 1000
*.host7.app[1].typename = "UdpBasicApp"
*.host7.app[1].destAddresses = "host3"
*.host7.app[1].source.packetNameFormat = "%M-%m-%c"
*.host7.app[1].source.displayStringTextFormat = "sent %p pk (%l)"
*.host7.app[1].messageLength = 14B
*.host7.app[1].sendInterval = 1ms
*.host7.app[1].startTime = 4ms
*.host7.app[1].stopTime = 19ms
*.host7.app[1].display-name = "type2_3"
*.host7.app[1].destPort = 1000
*.host7.app[2].typename = "UdpBasicApp"
*.host7.app[2].destAddresses = "host3"
*.host7.app[2].source.packetNameFormat = "%M-%m-%c"
*.host7.app[2].source.displayStringTextFormat = "sent %p pk (%l)"
*.host7.app[2].messageLength = 14B
*.host7.app[2].sendInterval = 1ms
*.host7.app[2].startTime = 21ms
*.host7.app[2].stopTime = 24ms
*.host7.app[2].display-name = "type2_3"
*.host7.app[2].destPort = 1000
*.host7.app[3].typename = "UdpBasicApp"
*.host7.app[3].destAddresses = "host3"
*.host7.app[3].source.packetNameFormat = "%M-%m-%c"
*.host7.app[3].source.displayStringTextFormat = "sent %p pk (%l)"
*.host7.app[3].messageLength = 14B
*.host7.app[3].sendInterval = 1ms
*.host7.app[3].startTime = 28ms
*.host7.app[3].stopTime = 29ms
*.host7.app[3].display-name = "type2_3"
*.host7.app[3].destPort = 1000
*.host7.app[4].typename = "UdpBasicApp"
*.host7.app[4].destAddresses = "host3"
*.host7.app[4].source.packetNameFormat = "%M-%m-%c"
*.host7.app[4].source.displayStringTextFormat = "sent %p pk (%l)"
*.host7.app[4].messageLength = 14B
*.host7.app[4].sendInterval = 1ms
*.host7.app[4].startTime = 46ms
*.host7.app[4].stopTime = 58ms
*.host7.app[4].display-name = "type2_3"
*.host7.app[4].destPort = 1000
*.host7.app[5].typename = "UdpBasicApp"
*.host7.app[5].destAddresses = "host3"
*.host7.app[5].source.packetNameFormat = "%M-%m-%c"
*.host7.app[5].source.displayStringTextFormat = "sent %p pk (%l)"
*.host7.app[5].messageLength = 14B
*.host7.app[5].sendInterval = 1ms
*.host7.app[5].startTime = 59ms
*.host7.app[5].stopTime = 66ms
*.host7.app[5].display-name = "type2_3"
*.host7.app[5].destPort = 1000
*.host7.app[6].typename = "UdpBasicApp"
*.host7.app[6].destAddresses = "host3"
*.host7.app[6].source.packetNameFormat = "%M-%m-%c"
*.host7.app[6].source.displayStringTextFormat = "sent %p pk (%l)"
*.host7.app[6].messageLength = 14B
*.host7.app[6].sendInterval = 1ms
*.host7.app[6].startTime = 70ms
*.host7.app[6].stopTime = 73ms
*.host7.app[6].display-name = "type2_3"
*.host7.app[6].destPort = 1000
*.host7.app[7].typename = "UdpBasicApp"
*.host7.app[7].destAddresses = "host3"
*.host7.app[7].source.packetNameFormat = "%M-%m-%c"
*.host7.app[7].source.displayStringTextFormat = "sent %p pk (%l)"
*.host7.app[7].messageLength = 14B
*.host7.app[7].sendInterval = 1ms
*.host7.app[7].startTime = 86ms
*.host7.app[7].stopTime = 89ms
*.host7.app[7].display-name = "type2_3"
*.host7.app[7].destPort = 1000
*.host7.app[8].typename = "UdpBasicApp"
*.host7.app[8].destAddresses = "host3"
*.host7.app[8].source.packetNameFormat = "%M-%m-%c"
*.host7.app[8].source.displayStringTextFormat = "sent %p pk (%l)"
*.host7.app[8].messageLength = 14B
*.host7.app[8].sendInterval = 1ms
*.host7.app[8].startTime = 93ms
*.host7.app[8].stopTime = 96ms
*.host7.app[8].display-name = "type2_3"
*.host7.app[8].destPort = 1000
*.host7.app[9].typename = "UdpSinkApp"
*.host7.app[9].io.localPort = 1000
*.host7.app[10].typename = "UdpSinkApp"
*.host7.app[10].io.localPort = 1001
*.host8.numApps = 0
*.host9.numApps = 22
*.host9.app[0].typename = "UdpSinkApp"
*.host9.app[0].io.localPort = 1000
*.host9.app[1].typename = "UdpBasicApp"
*.host9.app[1].destAddresses = "host5"
*.host9.app[1].source.packetNameFormat = "%M-%m-%c"
*.host9.app[1].source.displayStringTextFormat = "sent %p pk (%l)"
*.host9.app[1].messageLength = 24B
*.host9.app[1].sendInterval = 1ms
*.host9.app[1].startTime = 2ms
*.host9.app[1].stopTime = 3ms
*.host9.app[1].display-name = "type2_5"
*.host9.app[1].destPort = 1001
*.host9.app[2].typename = "UdpBasicApp"
*.host9.app[2].destAddresses = "host5"
*.host9.app[2].source.packetNameFormat = "%M-%m-%c"
*.host9.app[2].source.displayStringTextFormat = "sent %p pk (%l)"
*.host9.app[2].messageLength = 24B
*.host9.app[2].sendInterval = 1ms
*.host9.app[2].startTime = 5ms
*.host9.app[2].stopTime = 24ms
*.host9.app[2].display-name = "type2_5"
*.host9.app[2].destPort = 1001
*.host9.app[3].typename = "UdpBasicApp"
*.host9.app[3].destAddresses = "host5"
*.host9.app[3].source.packetNameFormat = "%M-%m-%c"
*.host9.app[3].source.displayStringTextFormat = "sent %p pk (%l)"
*.host9.app[3].messageLength = 24B
*.host9.app[3].sendInterval = 1ms
*.host9.app[3].startTime = 27ms
*.host9.app[3].stopTime = 40ms
*.host9.app[3].display-name = "type2_5"
*.host9.app[3].destPort = 1001
*.host9.app[4].typename = "UdpBasicApp"
*.host9.app[4].destAddresses = "host5"
*.host9.app[4].source.packetNameFormat = "%M-%m-%c"
*.host9.app[4].source.displayStringTextFormat = "sent %p pk (%l)"
*.host9.app[4].messageLength = 24B
*.host9.app[4].sendInterval = 1ms
*.host9.app[4].startTime = 42ms
*.host9.app[4].stopTime = 46ms
*.host9.app[4].display-name = "type2_5"
*.host9.app[4].destPort = 1001
*.host9.app[5].typename = "UdpBasicApp"
*.host9.app[5].destAddresses = "host5"
*.host9.app[5].source.packetNameFormat = "%M-%m-%c"
*.host9.app[5].source.displayStringTextFormat = "sent %p pk (%l)"
*.host9.app[5].messageLength = 24B
*.host9.app[5].sendInterval = 1ms
*.host9.app[5].startTime = 47ms
*.host9.app[5].stopTime = 52ms
*.host9.app[5].display-name = "type2_5"
*.host9.app[5].destPort = 1001
*.host9.app[6].typename = "UdpBasicApp"
*.host9.app[6].destAddresses = "host5"
*.host9.app[6].source.packetNameFormat = "%M-%m-%c"
*.host9.app[6].source.displayStringTextFormat = "sent %p pk (%l)"
*.host9.app[6].messageLength = 24B
*.host9.app[6].sendInterval = 1ms
*.host9.app[6].startTime = 53ms
*.host9.app[6].stopTime = 71ms
*.host9.app[6].display-name = "type2_5"
*.host9.app[6].destPort = 1001
*.host9.app[7].typename = "UdpBasicApp"
*.host9.app[7].destAddresses = "host5"
*.host9.app[7].source.packetNameFormat = "%M-%m-%c"
*.host9.app[7].source.displayStringTextFormat = "sent %p pk (%l)"
*.host9.app[7].messageLength = 24B
*.host9.app[7].sendInterval = 1ms
*.host9.app[7].startTime = 75ms
*.host9.app[7].stopTime = 84ms
*.host9.app[7].display-name = "type2_5"
*.host9.app[7].destPort = 1001
*.host9.app[8].typename = "UdpBasicApp"
*.host9.app[8].destAddresses = "host5"
*.host9.app[8].source.packetNameFormat = "%M-%m-%c"
*.host9.app[8].source.displayStringTextFormat = "sent %p pk (%l)"
*.host9.app[8].messageLength = 24B
*.host9.app[8].sendInterval = 1ms
*.host9.app[8].startTime = 86ms
*.host9.app[8].stopTime = 89ms
*.host9.app[8].display-name = "type2_5"
*.host9.app[8].destPort = 1001
*.host9.app[9].typename = "UdpBasicApp"
*.host9.app[9].destAddresses = "host7"
*.host9.app[9].source.packetNameFormat = "%M-%m-%c"
*.host9.app[9].source.displayStringTextFormat = "sent %p pk (%l)"
*.host9.app[9].messageLength = 18B
*.host9.app[9].sendInterval = 1ms
*.host9.app[9].startTime = 0ms
*.host9.app[9].stopTime = 1ms
*.host9.app[9].display-name = "type2_6"
*.host9.app[9].destPort = 1001
*.host9.app[10].typename = "UdpBasicApp"
*.host9.app[10].destAddresses = "host7"
*.host9.app[10].source.packetNameFormat = "%M-%m-%c"
*.host9.app[10].source.displayStringTextFormat = "sent %p pk (%l)"
*.host9.app[10].messageLength = 18B
*.host9.app[10].sendInterval = 1ms
*.host9.app[10].startTime = 15ms
*.host9.app[10].stopTime = 23ms
*.host9.app[10].display-name = "type2_6"
*.host9.app[10].destPort = 1001
*.host9.app[11].typename = "UdpBasicApp"
*.host9.app[11].destAddresses = "host7"
*.host9.app[11].source.packetNameFormat = "%M-%m-%c"
*.host9.app[11].source.displayStringTextFormat = "sent %p pk (%l)"
*.host9.app[11].messageLength = 18B
*.host9.app[11].sendInterval = 1ms
*.host9.app[11].startTime = 26ms
*.host9.app[11].stopTime = 35ms
*.host9.app[11].display-name = "type2_6"
*.host9.app[11].destPort = 1001
*.host9.app[12].typename = "UdpBasicApp"
*.host9.app[12].destAddresses = "host7"
*.host9.app[12].source.packetNameFormat = "%M-%m-%c"
*.host9.app[12].source.displayStringTextFormat = "sent %p pk (%l)"
*.host9.app[12].messageLength = 18B
*.host9.app[12].sendInterval = 1ms
*.host9.app[12].startTime = 36ms
*.host9.app[12].stopTime = 42ms
*.host9.app[12].display-name = "type2_6"
*.host9.app[12].destPort = 1001
*.host9.app[13].typename = "UdpBasicApp"
*.host9.app[13].destAddresses = "host7"
*.host9.app[13].source.packetNameFormat = "%M-%m-%c"
*.host9.app[13].source.displayStringTextFormat = "sent %p pk (%l)"
*.host9.app[13].messageLength = 18B
*.host9.app[13].sendInterval = 1ms
*.host9.app[13].startTime = 52ms
*.host9.app[13].stopTime = 64ms
*.host9.app[13].display-name = "type2_6"
*.host9.app[13].destPort = 1001
*.host9.app[14].typename = "UdpBasicApp"
*.host9.app[14].destAddresses = "host7"
*.host9.app[14].source.packetNameFormat = "%M-%m-%c"
*.host9.app[14].source.displayStringTextFormat = "sent %p pk (%l)"
*.host9.app[14].messageLength = 18B
*.host9.app[14].sendInterval = 1ms
*.host9.app[14].startTime = 69ms
*.host9.app[14].stopTime = 93ms
*.host9.app[14].display-name = "type2_6"
*.host9.app[14].destPort = 1001
*.host9.app[15].typename = "UdpBasicApp"
*.host9.app[15].destAddresses = "host7"
*.host9.app[15].source.packetNameFormat = "%M-%m-%c"
*.host9.app[15].source.displayStringTextFormat = "sent %p pk (%l)"
*.host9.app[15].messageLength = 18B
*.host9.app[15].sendInterval = 1ms
*.host9.app[15].startTime = 94ms
*.host9.app[15].stopTime = 95ms
*.host9.app[15].display-name = "type2_6"
*.host9.app[15].destPort = 1001
*.host9.app[16].typename = "UdpBasicApp"
*.host9.app[16].destAddresses = "host4"
*.host9.app[16].source.packetNameFormat = "%M-%m-%c"
*.host9.app[16].source.displayStringTextFormat = "sent %p pk (%l)"
*.host9.app[16].messageLength = 22B
*.host9.app[16].sendInterval = 1ms
*.host9.app[16].startTime = 5ms
*.host9.app[16].stopTime = 25ms
*.host9.app[16].display-name = "type2_7"
*.host9.app[16].destPort = 1000
*.host9.app[17].typename = "UdpBasicApp"
*.host9.app[17].destAddresses = "host4"
*.host9.app[17].source.packetNameFormat = "%M-%m-%c"
*.host9.app[17].source.displayStringTextFormat = "sent %p pk (%l)"
*.host9.app[17].messageLength = 22B
*.host9.app[17].sendInterval = 1ms
*.host9.app[17].startTime = 38ms
*.host9.app[17].stopTime = 46ms
*.host9.app[17].display-name = "type2_7"
*.host9.app[17].destPort = 1000
*.host9.app[18].typename = "UdpBasicApp"
*.host9.app[18].destAddresses = "host4"
*.host9.app[18].source.packetNameFormat = "%M-%m-%c"
*.host9.app[18].source.displayStringTextFormat = "sent %p pk (%l)"
*.host9.app[18].messageLength = 22B
*.host9.app[18].sendInterval = 1ms
*.host9.app[18].startTime = 52ms
*.host9.app[18].stopTime = 56ms
*.host9.app[18].display-name = "type2_7"
*.host9.app[18].destPort = 1000
*.host9.app[19].typename = "UdpBasicApp"
*.host9.app[19].destAddresses = "host4"
*.host9.app[19].source.packetNameFormat = "%M-%m-%c"
*.host9.app[19].source.displayStringTextFormat = "sent %p pk (%l)"
*.host9.app[19].messageLength = 22B
*.host9.app[19].sendInterval = 1ms
*.host9.app[19].startTime = 58ms
*.host9.app[19].stopTime = 69ms
*.host9.app[19].display-name = "type2_7"
*.host9.app[19].destPort = 1000
*.host9.app[20].typename = "UdpBasicApp"
*.host9.app[20].destAddresses = "host4"
*.host9.app[20].source.packetNameFormat = "%M-%m-%c"
*.host9.app[20].source.displayStringTextFormat = "sent %p pk (%l)"
*.host9.app[20].messageLength = 22B
*.host9.app[20].sendInterval = 1ms
*.host9.app[20].startTime = 71ms
*.host9.app[20].stopTime = 78ms
*.host9.app[20].display-name = "type2_7"
*.host9.app[20].destPort = 1000
*.host9.app[21].typename = "UdpBasicApp"
*.host9.app[21].destAddresses = "host4"
*.host9.app[21].source.packetNameFormat = "%M-%m-%c"
*.host9.app[21].source.displayStringTextFormat = "sent %p pk (%l)"
*.host9.app[21].messageLength = 22B
*.host9.app[21].sendInterval = 1ms
*.host9.app[21].startTime = 96ms
*.host9.app[21].stopTime = 97ms
*.host9.app[21].display-name = "type2_7"
*.host9.app[21].destPort = 1000
*.streamRedundancyConfigurator.configuration = [
	{
		name: "S1-0",
		packetFilter: "*-type1_0-*",
		source: "host2",
		destination: "host1",
		trees: [[["host2", "switch2", "switch4", "switch6", "switch1", "host1"]]]
	},
	{
		name: "S1-1",
		packetFilter: "*-type1_1-*",
		source: "host7",
		destination: "host2",
		trees: [[["host7", "switch7", "switch0", "switch1", "switch4", "switch2", "host2"]]]
	},
	{
		name: "S2-0",
		packetFilter: "*-type2_0-*",
		source: "host4",
		destination: "host5",
		trees: [[["host4", "switch4", "switch5", "host5"]]]
	},
	{
		name: "S2-1",
		packetFilter: "*-type2_1-*",
		source: "host1",
		destination: "host6",
		trees: [[["host1", "switch1", "switch4", "switch5", "switch9", "switch6", "host6"]]]
	},
	{
		name: "S2-2",
		packetFilter: "*-type2_2-*",
		source: "host1",
		destination: "host9",
		trees: [[["host1", "switch1", "switch4", "switch5", "switch9", "host9"]]]
	},
	{
		name: "S2-3",
		packetFilter: "*-type2_3-*",
		source: "host7",
		destination: "host3",
		trees: [[["host7",
	 "switch7",
	 "switch0",
	 "switch1",
	 "switch4",
	 "switch5",
	 "switch9",
	 "switch6",
	 "switch3",
	 "host3"]]]
	},
	{
		name: "S2-4",
		packetFilter: "*-type2_4-*",
		source: "host6",
		destination: "host7",
		trees: [[["host6", "switch6", "switch3", "switch7", "host7"]]]
	},
	{
		name: "S2-5",
		packetFilter: "*-type2_5-*",
		source: "host9",
		destination: "host5",
		trees: [[["host9",
	 "switch9",
	 "switch6",
	 "switch3",
	 "switch7",
	 "switch0",
	 "switch1",
	 "switch4",
	 "switch5",
	 "host5"]]]
	},
	{
		name: "S2-6",
		packetFilter: "*-type2_6-*",
		source: "host9",
		destination: "host7",
		trees: [[["host9", "switch9", "switch6", "switch3", "switch7", "host7"]]]
	},
	{
		name: "S2-7",
		packetFilter: "*-type2_7-*",
		source: "host9",
		destination: "host4",
		trees: [[["host9",
	 "switch9",
	 "switch6",
	 "switch3",
	 "switch7",
	 "switch0",
	 "switch1",
	 "switch4",
	 "host4"]]]
	}]
	

