[General]
network = TSN_multipath
sim-time-limit = 100ms
*.macForwardingTableConfigurator.typename = ""
*.*.hasStreamRedundancy = true
*.*.bridging.streamRelay.typename = "StreamRelayLayer"
*.*.bridging.streamCoder.typename = "StreamCoderLayer"
*.streamRedundancyConfigurator.typename = "StreamRedundancyConfigurator"
*.host0.eth[0].bitrate = 1000Mbps
*.switch0.eth[0].bitrate = 1000Mbps
*.switch0.eth[1].bitrate = 2000Mbps
*.switch0.eth[2].bitrate = 1800Mbps
*.switch0.eth[3].bitrate = 1500Mbps
*.switch0.eth[4].bitrate = 1700Mbps
*.switch0.eth[5].bitrate = 1900Mbps
*.switch0.eth[6].bitrate = 1600Mbps
*.switch0.eth[7].bitrate = 1900Mbps
*.switch0.eth[8].bitrate = 1300Mbps
*.switch0.eth[9].bitrate = 2200Mbps
*.switch0.eth[10].bitrate = 2000Mbps
*.switch0.eth[11].bitrate = 2300Mbps
*.switch0.eth[12].bitrate = 1400Mbps
*.switch0.eth[13].bitrate = 2100Mbps
*.switch0.eth[14].bitrate = 1200Mbps
*.switch0.eth[15].bitrate = 1200Mbps
*.switch0.eth[16].bitrate = 1500Mbps
*.switch0.eth[17].bitrate = 1400Mbps
*.switch0.eth[18].bitrate = 1700Mbps
*.switch0.eth[19].bitrate = 1700Mbps
*.switch0.eth[20].bitrate = 1400Mbps
*.host1.eth[0].bitrate = 1000Mbps
*.switch1.eth[0].bitrate = 1000Mbps
*.switch1.eth[1].bitrate = 2000Mbps
*.switch1.eth[2].bitrate = 1700Mbps
*.switch1.eth[3].bitrate = 1900Mbps
*.switch1.eth[4].bitrate = 1600Mbps
*.switch1.eth[5].bitrate = 2400Mbps
*.switch1.eth[6].bitrate = 2400Mbps
*.switch1.eth[7].bitrate = 1500Mbps
*.switch1.eth[8].bitrate = 1600Mbps
*.switch1.eth[9].bitrate = 1800Mbps
*.switch1.eth[10].bitrate = 1200Mbps
*.switch1.eth[11].bitrate = 1800Mbps
*.switch1.eth[12].bitrate = 1300Mbps
*.host2.eth[0].bitrate = 1000Mbps
*.switch2.eth[0].bitrate = 1000Mbps
*.switch2.eth[1].bitrate = 1800Mbps
*.switch2.eth[2].bitrate = 1200Mbps
*.switch2.eth[3].bitrate = 1500Mbps
*.switch2.eth[4].bitrate = 1300Mbps
*.switch2.eth[5].bitrate = 2400Mbps
*.switch2.eth[6].bitrate = 2100Mbps
*.switch2.eth[7].bitrate = 1300Mbps
*.switch2.eth[8].bitrate = 2300Mbps
*.switch2.eth[9].bitrate = 1400Mbps
*.switch2.eth[10].bitrate = 2300Mbps
*.switch2.eth[11].bitrate = 1800Mbps
*.switch2.eth[12].bitrate = 1500Mbps
*.switch2.eth[13].bitrate = 1500Mbps
*.switch2.eth[14].bitrate = 1800Mbps
*.host3.eth[0].bitrate = 1000Mbps
*.switch3.eth[0].bitrate = 1000Mbps
*.switch3.eth[1].bitrate = 1500Mbps
*.switch3.eth[2].bitrate = 1700Mbps
*.switch3.eth[3].bitrate = 1800Mbps
*.switch3.eth[4].bitrate = 2100Mbps
*.switch3.eth[5].bitrate = 2000Mbps
*.switch3.eth[6].bitrate = 2000Mbps
*.switch3.eth[7].bitrate = 1300Mbps
*.switch3.eth[8].bitrate = 1600Mbps
*.switch3.eth[9].bitrate = 1300Mbps
*.switch3.eth[10].bitrate = 2300Mbps
*.switch3.eth[11].bitrate = 1700Mbps
*.host4.eth[0].bitrate = 1000Mbps
*.switch4.eth[0].bitrate = 1000Mbps
*.switch4.eth[1].bitrate = 1700Mbps
*.switch4.eth[2].bitrate = 1200Mbps
*.switch4.eth[3].bitrate = 2400Mbps
*.switch4.eth[4].bitrate = 1300Mbps
*.switch4.eth[5].bitrate = 1700Mbps
*.switch4.eth[6].bitrate = 2200Mbps
*.switch4.eth[7].bitrate = 1200Mbps
*.switch4.eth[8].bitrate = 1700Mbps
*.switch4.eth[9].bitrate = 1600Mbps
*.switch4.eth[10].bitrate = 1800Mbps
*.switch4.eth[11].bitrate = 1600Mbps
*.host5.eth[0].bitrate = 1000Mbps
*.switch5.eth[0].bitrate = 1000Mbps
*.switch5.eth[1].bitrate = 1900Mbps
*.switch5.eth[2].bitrate = 1700Mbps
*.switch5.eth[3].bitrate = 2300Mbps
*.switch5.eth[4].bitrate = 1200Mbps
*.switch5.eth[5].bitrate = 2100Mbps
*.switch5.eth[6].bitrate = 1600Mbps
*.switch5.eth[7].bitrate = 2300Mbps
*.switch5.eth[8].bitrate = 1900Mbps
*.switch5.eth[9].bitrate = 1700Mbps
*.switch5.eth[10].bitrate = 2100Mbps
*.switch5.eth[11].bitrate = 1500Mbps
*.switch5.eth[12].bitrate = 2200Mbps
*.switch5.eth[13].bitrate = 1500Mbps
*.switch5.eth[14].bitrate = 1600Mbps
*.switch5.eth[15].bitrate = 2000Mbps
*.switch5.eth[16].bitrate = 1700Mbps
*.switch5.eth[17].bitrate = 1800Mbps
*.host6.eth[0].bitrate = 1000Mbps
*.switch6.eth[0].bitrate = 1000Mbps
*.switch6.eth[1].bitrate = 1600Mbps
*.switch6.eth[2].bitrate = 1500Mbps
*.switch6.eth[3].bitrate = 1700Mbps
*.switch6.eth[4].bitrate = 2100Mbps
*.switch6.eth[5].bitrate = 1500Mbps
*.switch6.eth[6].bitrate = 1400Mbps
*.switch6.eth[7].bitrate = 2100Mbps
*.switch6.eth[8].bitrate = 2000Mbps
*.switch6.eth[9].bitrate = 2200Mbps
*.switch6.eth[10].bitrate = 1600Mbps
*.switch6.eth[11].bitrate = 1200Mbps
*.switch6.eth[12].bitrate = 1800Mbps
*.switch6.eth[13].bitrate = 2200Mbps
*.switch6.eth[14].bitrate = 1800Mbps
*.switch6.eth[15].bitrate = 1400Mbps
*.switch6.eth[16].bitrate = 1800Mbps
*.switch6.eth[17].bitrate = 2200Mbps
*.switch6.eth[18].bitrate = 1300Mbps
*.switch6.eth[19].bitrate = 1500Mbps
*.host7.eth[0].bitrate = 1000Mbps
*.switch7.eth[0].bitrate = 1000Mbps
*.switch7.eth[1].bitrate = 1900Mbps
*.switch7.eth[2].bitrate = 1300Mbps
*.switch7.eth[3].bitrate = 1800Mbps
*.switch7.eth[4].bitrate = 1600Mbps
*.switch7.eth[5].bitrate = 2000Mbps
*.switch7.eth[6].bitrate = 2300Mbps
*.switch7.eth[7].bitrate = 1300Mbps
*.switch7.eth[8].bitrate = 1500Mbps
*.switch7.eth[9].bitrate = 1400Mbps
*.switch7.eth[10].bitrate = 2300Mbps
*.switch7.eth[11].bitrate = 1300Mbps
*.switch7.eth[12].bitrate = 1900Mbps
*.switch7.eth[13].bitrate = 1700Mbps
*.switch7.eth[14].bitrate = 1600Mbps
*.switch7.eth[15].bitrate = 2200Mbps
*.host8.eth[0].bitrate = 1000Mbps
*.switch8.eth[0].bitrate = 1000Mbps
*.switch8.eth[1].bitrate = 1700Mbps
*.switch8.eth[2].bitrate = 2400Mbps
*.switch8.eth[3].bitrate = 2200Mbps
*.switch8.eth[4].bitrate = 1500Mbps
*.switch8.eth[5].bitrate = 1600Mbps
*.switch8.eth[6].bitrate = 1800Mbps
*.switch8.eth[7].bitrate = 1700Mbps
*.switch8.eth[8].bitrate = 2200Mbps
*.switch8.eth[9].bitrate = 1400Mbps
*.switch8.eth[10].bitrate = 1900Mbps
*.switch8.eth[11].bitrate = 2400Mbps
*.switch8.eth[12].bitrate = 1600Mbps
*.switch8.eth[13].bitrate = 1200Mbps
*.switch8.eth[14].bitrate = 1300Mbps
*.switch8.eth[15].bitrate = 2100Mbps
*.switch8.eth[16].bitrate = 1400Mbps
*.switch8.eth[17].bitrate = 1300Mbps
*.switch8.eth[18].bitrate = 1600Mbps
*.switch8.eth[19].bitrate = 1300Mbps
*.host9.eth[0].bitrate = 1000Mbps
*.switch9.eth[0].bitrate = 1000Mbps
*.switch9.eth[1].bitrate = 1300Mbps
*.switch9.eth[2].bitrate = 2200Mbps
*.switch9.eth[3].bitrate = 2300Mbps
*.switch9.eth[4].bitrate = 1600Mbps
*.switch9.eth[5].bitrate = 2400Mbps
*.switch9.eth[6].bitrate = 1800Mbps
*.switch9.eth[7].bitrate = 1600Mbps
*.switch9.eth[8].bitrate = 1600Mbps
*.switch9.eth[9].bitrate = 1500Mbps
*.switch9.eth[10].bitrate = 1700Mbps
*.switch9.eth[11].bitrate = 1600Mbps
*.switch9.eth[12].bitrate = 1900Mbps
*.host10.eth[0].bitrate = 1000Mbps
*.switch10.eth[0].bitrate = 1000Mbps
*.switch10.eth[1].bitrate = 2200Mbps
*.switch10.eth[2].bitrate = 1900Mbps
*.switch10.eth[3].bitrate = 2100Mbps
*.switch10.eth[4].bitrate = 1200Mbps
*.switch10.eth[5].bitrate = 1600Mbps
*.switch10.eth[6].bitrate = 1400Mbps
*.switch10.eth[7].bitrate = 1200Mbps
*.switch10.eth[8].bitrate = 1500Mbps
*.switch10.eth[9].bitrate = 1300Mbps
*.switch10.eth[10].bitrate = 1800Mbps
*.switch10.eth[11].bitrate = 1600Mbps
*.switch10.eth[12].bitrate = 1800Mbps
*.switch10.eth[13].bitrate = 1300Mbps
*.switch10.eth[14].bitrate = 1200Mbps
*.switch10.eth[15].bitrate = 1300Mbps
*.switch10.eth[16].bitrate = 1700Mbps
*.switch10.eth[17].bitrate = 2400Mbps
*.switch10.eth[18].bitrate = 2100Mbps
*.switch10.eth[19].bitrate = 1900Mbps
*.host11.eth[0].bitrate = 1000Mbps
*.switch11.eth[0].bitrate = 1000Mbps
*.switch11.eth[1].bitrate = 2000Mbps
*.switch11.eth[2].bitrate = 1900Mbps
*.switch11.eth[3].bitrate = 1800Mbps
*.switch11.eth[4].bitrate = 1400Mbps
*.switch11.eth[5].bitrate = 1200Mbps
*.switch11.eth[6].bitrate = 1600Mbps
*.switch11.eth[7].bitrate = 1200Mbps
*.switch11.eth[8].bitrate = 2000Mbps
*.switch11.eth[9].bitrate = 2200Mbps
*.switch11.eth[10].bitrate = 1600Mbps
*.switch11.eth[11].bitrate = 2400Mbps
*.switch11.eth[12].bitrate = 2400Mbps
*.switch11.eth[13].bitrate = 2200Mbps
*.switch11.eth[14].bitrate = 2400Mbps
*.host12.eth[0].bitrate = 1000Mbps
*.switch12.eth[0].bitrate = 1000Mbps
*.switch12.eth[1].bitrate = 2300Mbps
*.switch12.eth[2].bitrate = 1600Mbps
*.switch12.eth[3].bitrate = 2200Mbps
*.switch12.eth[4].bitrate = 1300Mbps
*.switch12.eth[5].bitrate = 1300Mbps
*.switch12.eth[6].bitrate = 1700Mbps
*.switch12.eth[7].bitrate = 1500Mbps
*.switch12.eth[8].bitrate = 2300Mbps
*.switch12.eth[9].bitrate = 1600Mbps
*.switch12.eth[10].bitrate = 1700Mbps
*.switch12.eth[11].bitrate = 1300Mbps
*.switch12.eth[12].bitrate = 1600Mbps
*.switch12.eth[13].bitrate = 1900Mbps
*.switch12.eth[14].bitrate = 2400Mbps
*.switch12.eth[15].bitrate = 2200Mbps
*.switch12.eth[16].bitrate = 2000Mbps
*.switch12.eth[17].bitrate = 2400Mbps
*.host13.eth[0].bitrate = 1000Mbps
*.switch13.eth[0].bitrate = 1000Mbps
*.switch13.eth[1].bitrate = 1400Mbps
*.switch13.eth[2].bitrate = 2400Mbps
*.switch13.eth[3].bitrate = 2100Mbps
*.switch13.eth[4].bitrate = 2000Mbps
*.switch13.eth[5].bitrate = 1800Mbps
*.switch13.eth[6].bitrate = 2300Mbps
*.switch13.eth[7].bitrate = 2100Mbps
*.switch13.eth[8].bitrate = 1700Mbps
*.switch13.eth[9].bitrate = 2400Mbps
*.switch13.eth[10].bitrate = 2000Mbps
*.switch13.eth[11].bitrate = 1700Mbps
*.switch13.eth[12].bitrate = 1800Mbps
*.switch13.eth[13].bitrate = 1800Mbps
*.switch13.eth[14].bitrate = 1700Mbps
*.switch13.eth[15].bitrate = 1800Mbps
*.switch13.eth[16].bitrate = 1500Mbps
*.switch13.eth[17].bitrate = 2200Mbps
*.switch13.eth[18].bitrate = 1300Mbps
*.switch13.eth[19].bitrate = 2100Mbps
*.switch13.eth[20].bitrate = 1700Mbps
*.host14.eth[0].bitrate = 1000Mbps
*.switch14.eth[0].bitrate = 1000Mbps
*.switch14.eth[1].bitrate = 2100Mbps
*.switch14.eth[2].bitrate = 2000Mbps
*.switch14.eth[3].bitrate = 1700Mbps
*.switch14.eth[4].bitrate = 1300Mbps
*.switch14.eth[5].bitrate = 1400Mbps
*.switch14.eth[6].bitrate = 2400Mbps
*.switch14.eth[7].bitrate = 2400Mbps
*.switch14.eth[8].bitrate = 1700Mbps
*.switch14.eth[9].bitrate = 1400Mbps
*.switch14.eth[10].bitrate = 1300Mbps
*.switch14.eth[11].bitrate = 1900Mbps
*.switch14.eth[12].bitrate = 2400Mbps
*.host0.numApps = 18
*.host0.app[0].typename = "UdpSinkApp"
*.host0.app[0].io.localPort = 1000
*.host0.app[1].typename = "UdpSourceApp"
*.host0.app[1].io.destAddress = "host7"
*.host0.app[1].source.packetNameFormat = "%M-%m-%c"
*.host0.app[1].source.displayStringTextFormat = "sent %p pk (%l)"
*.host0.app[1].source.packetLength = 20B
*.host0.app[1].source.productionInterval = 1ms
*.host0.app[1].display-name = "type1_3"
*.host0.app[1].io.destPort = 1000
*.host0.app[2].typename = "UdpBasicApp"
*.host0.app[2].destAddresses = "host4"
*.host0.app[2].source.packetNameFormat = "%M-%m-%c"
*.host0.app[2].source.displayStringTextFormat = "sent %p pk (%l)"
*.host0.app[2].messageLength = 17B
*.host0.app[2].sendInterval = 1ms
*.host0.app[2].startTime = 3ms
*.host0.app[2].stopTime = 5ms
*.host0.app[2].display-name = "type2_0"
*.host0.app[2].destPort = 1000
*.host0.app[3].typename = "UdpBasicApp"
*.host0.app[3].destAddresses = "host4"
*.host0.app[3].source.packetNameFormat = "%M-%m-%c"
*.host0.app[3].source.displayStringTextFormat = "sent %p pk (%l)"
*.host0.app[3].messageLength = 17B
*.host0.app[3].sendInterval = 1ms
*.host0.app[3].startTime = 17ms
*.host0.app[3].stopTime = 18ms
*.host0.app[3].display-name = "type2_0"
*.host0.app[3].destPort = 1000
*.host0.app[4].typename = "UdpBasicApp"
*.host0.app[4].destAddresses = "host4"
*.host0.app[4].source.packetNameFormat = "%M-%m-%c"
*.host0.app[4].source.displayStringTextFormat = "sent %p pk (%l)"
*.host0.app[4].messageLength = 17B
*.host0.app[4].sendInterval = 1ms
*.host0.app[4].startTime = 19ms
*.host0.app[4].stopTime = 35ms
*.host0.app[4].display-name = "type2_0"
*.host0.app[4].destPort = 1000
*.host0.app[5].typename = "UdpBasicApp"
*.host0.app[5].destAddresses = "host4"
*.host0.app[5].source.packetNameFormat = "%M-%m-%c"
*.host0.app[5].source.displayStringTextFormat = "sent %p pk (%l)"
*.host0.app[5].messageLength = 17B
*.host0.app[5].sendInterval = 1ms
*.host0.app[5].startTime = 50ms
*.host0.app[5].stopTime = 56ms
*.host0.app[5].display-name = "type2_0"
*.host0.app[5].destPort = 1000
*.host0.app[6].typename = "UdpBasicApp"
*.host0.app[6].destAddresses = "host4"
*.host0.app[6].source.packetNameFormat = "%M-%m-%c"
*.host0.app[6].source.displayStringTextFormat = "sent %p pk (%l)"
*.host0.app[6].messageLength = 17B
*.host0.app[6].sendInterval = 1ms
*.host0.app[6].startTime = 58ms
*.host0.app[6].stopTime = 76ms
*.host0.app[6].display-name = "type2_0"
*.host0.app[6].destPort = 1000
*.host0.app[7].typename = "UdpBasicApp"
*.host0.app[7].destAddresses = "host4"
*.host0.app[7].source.packetNameFormat = "%M-%m-%c"
*.host0.app[7].source.displayStringTextFormat = "sent %p pk (%l)"
*.host0.app[7].messageLength = 17B
*.host0.app[7].sendInterval = 1ms
*.host0.app[7].startTime = 99ms
*.host0.app[7].stopTime = 100ms
*.host0.app[7].display-name = "type2_0"
*.host0.app[7].destPort = 1000
*.host0.app[8].typename = "UdpBasicApp"
*.host0.app[8].destAddresses = "host12"
*.host0.app[8].source.packetNameFormat = "%M-%m-%c"
*.host0.app[8].source.displayStringTextFormat = "sent %p pk (%l)"
*.host0.app[8].messageLength = 23B
*.host0.app[8].sendInterval = 1ms
*.host0.app[8].startTime = 3ms
*.host0.app[8].stopTime = 6ms
*.host0.app[8].display-name = "type2_6"
*.host0.app[8].destPort = 1000
*.host0.app[9].typename = "UdpBasicApp"
*.host0.app[9].destAddresses = "host12"
*.host0.app[9].source.packetNameFormat = "%M-%m-%c"
*.host0.app[9].source.displayStringTextFormat = "sent %p pk (%l)"
*.host0.app[9].messageLength = 23B
*.host0.app[9].sendInterval = 1ms
*.host0.app[9].startTime = 19ms
*.host0.app[9].stopTime = 26ms
*.host0.app[9].display-name = "type2_6"
*.host0.app[9].destPort = 1000
*.host0.app[10].typename = "UdpBasicApp"
*.host0.app[10].destAddresses = "host12"
*.host0.app[10].source.packetNameFormat = "%M-%m-%c"
*.host0.app[10].source.displayStringTextFormat = "sent %p pk (%l)"
*.host0.app[10].messageLength = 23B
*.host0.app[10].sendInterval = 1ms
*.host0.app[10].startTime = 65ms
*.host0.app[10].stopTime = 82ms
*.host0.app[10].display-name = "type2_6"
*.host0.app[10].destPort = 1000
*.host0.app[11].typename = "UdpBasicApp"
*.host0.app[11].destAddresses = "host12"
*.host0.app[11].source.packetNameFormat = "%M-%m-%c"
*.host0.app[11].source.displayStringTextFormat = "sent %p pk (%l)"
*.host0.app[11].messageLength = 23B
*.host0.app[11].sendInterval = 1ms
*.host0.app[11].startTime = 93ms
*.host0.app[11].stopTime = 100ms
*.host0.app[11].display-name = "type2_6"
*.host0.app[11].destPort = 1000
*.host0.app[12].typename = "UdpBasicApp"
*.host0.app[12].destAddresses = "host10"
*.host0.app[12].source.packetNameFormat = "%M-%m-%c"
*.host0.app[12].source.displayStringTextFormat = "sent %p pk (%l)"
*.host0.app[12].messageLength = 20B
*.host0.app[12].sendInterval = 1ms
*.host0.app[12].startTime = 2ms
*.host0.app[12].stopTime = 5ms
*.host0.app[12].display-name = "type2_12"
*.host0.app[12].destPort = 1002
*.host0.app[13].typename = "UdpBasicApp"
*.host0.app[13].destAddresses = "host10"
*.host0.app[13].source.packetNameFormat = "%M-%m-%c"
*.host0.app[13].source.displayStringTextFormat = "sent %p pk (%l)"
*.host0.app[13].messageLength = 20B
*.host0.app[13].sendInterval = 1ms
*.host0.app[13].startTime = 22ms
*.host0.app[13].stopTime = 27ms
*.host0.app[13].display-name = "type2_12"
*.host0.app[13].destPort = 1002
*.host0.app[14].typename = "UdpBasicApp"
*.host0.app[14].destAddresses = "host10"
*.host0.app[14].source.packetNameFormat = "%M-%m-%c"
*.host0.app[14].source.displayStringTextFormat = "sent %p pk (%l)"
*.host0.app[14].messageLength = 20B
*.host0.app[14].sendInterval = 1ms
*.host0.app[14].startTime = 35ms
*.host0.app[14].stopTime = 51ms
*.host0.app[14].display-name = "type2_12"
*.host0.app[14].destPort = 1002
*.host0.app[15].typename = "UdpBasicApp"
*.host0.app[15].destAddresses = "host10"
*.host0.app[15].source.packetNameFormat = "%M-%m-%c"
*.host0.app[15].source.displayStringTextFormat = "sent %p pk (%l)"
*.host0.app[15].messageLength = 20B
*.host0.app[15].sendInterval = 1ms
*.host0.app[15].startTime = 53ms
*.host0.app[15].stopTime = 66ms
*.host0.app[15].display-name = "type2_12"
*.host0.app[15].destPort = 1002
*.host0.app[16].typename = "UdpBasicApp"
*.host0.app[16].destAddresses = "host10"
*.host0.app[16].source.packetNameFormat = "%M-%m-%c"
*.host0.app[16].source.displayStringTextFormat = "sent %p pk (%l)"
*.host0.app[16].messageLength = 20B
*.host0.app[16].sendInterval = 1ms
*.host0.app[16].startTime = 70ms
*.host0.app[16].stopTime = 80ms
*.host0.app[16].display-name = "type2_12"
*.host0.app[16].destPort = 1002
*.host0.app[17].typename = "UdpBasicApp"
*.host0.app[17].destAddresses = "host10"
*.host0.app[17].source.packetNameFormat = "%M-%m-%c"
*.host0.app[17].source.displayStringTextFormat = "sent %p pk (%l)"
*.host0.app[17].messageLength = 20B
*.host0.app[17].sendInterval = 1ms
*.host0.app[17].startTime = 91ms
*.host0.app[17].stopTime = 95ms
*.host0.app[17].display-name = "type2_12"
*.host0.app[17].destPort = 1002
*.host1.numApps = 3
*.host1.app[0].typename = "UdpSinkApp"
*.host1.app[0].io.localPort = 1000
*.host1.app[1].typename = "UdpSinkApp"
*.host1.app[1].io.localPort = 1001
*.host1.app[2].typename = "UdpSinkApp"
*.host1.app[2].io.localPort = 1002
*.host2.numApps = 0
*.host3.numApps = 4
*.host3.app[0].typename = "UdpSourceApp"
*.host3.app[0].io.destAddress = "host0"
*.host3.app[0].source.packetNameFormat = "%M-%m-%c"
*.host3.app[0].source.displayStringTextFormat = "sent %p pk (%l)"
*.host3.app[0].source.packetLength = 22B
*.host3.app[0].source.productionInterval = 1ms
*.host3.app[0].display-name = "type1_2"
*.host3.app[0].io.destPort = 1000
*.host3.app[1].typename = "UdpSourceApp"
*.host3.app[1].io.destAddress = "host9"
*.host3.app[1].source.packetNameFormat = "%M-%m-%c"
*.host3.app[1].source.displayStringTextFormat = "sent %p pk (%l)"
*.host3.app[1].source.packetLength = 21B
*.host3.app[1].source.productionInterval = 1ms
*.host3.app[1].display-name = "type1_4"
*.host3.app[1].io.destPort = 1000
*.host3.app[2].typename = "UdpSourceApp"
*.host3.app[2].io.destAddress = "host1"
*.host3.app[2].source.packetNameFormat = "%M-%m-%c"
*.host3.app[2].source.displayStringTextFormat = "sent %p pk (%l)"
*.host3.app[2].source.packetLength = 20B
*.host3.app[2].source.productionInterval = 1ms
*.host3.app[2].display-name = "type1_5"
*.host3.app[2].io.destPort = 1001
*.host3.app[3].typename = "UdpSinkApp"
*.host3.app[3].io.localPort = 1000
*.host4.numApps = 10
*.host4.app[0].typename = "UdpSinkApp"
*.host4.app[0].io.localPort = 1000
*.host4.app[1].typename = "UdpSinkApp"
*.host4.app[1].io.localPort = 1001
*.host4.app[2].typename = "UdpBasicApp"
*.host4.app[2].destAddresses = "host3"
*.host4.app[2].source.packetNameFormat = "%M-%m-%c"
*.host4.app[2].source.displayStringTextFormat = "sent %p pk (%l)"
*.host4.app[2].messageLength = 19B
*.host4.app[2].sendInterval = 1ms
*.host4.app[2].startTime = 0ms
*.host4.app[2].stopTime = 6ms
*.host4.app[2].display-name = "type2_15"
*.host4.app[2].destPort = 1000
*.host4.app[3].typename = "UdpBasicApp"
*.host4.app[3].destAddresses = "host3"
*.host4.app[3].source.packetNameFormat = "%M-%m-%c"
*.host4.app[3].source.displayStringTextFormat = "sent %p pk (%l)"
*.host4.app[3].messageLength = 19B
*.host4.app[3].sendInterval = 1ms
*.host4.app[3].startTime = 15ms
*.host4.app[3].stopTime = 18ms
*.host4.app[3].display-name = "type2_15"
*.host4.app[3].destPort = 1000
*.host4.app[4].typename = "UdpBasicApp"
*.host4.app[4].destAddresses = "host3"
*.host4.app[4].source.packetNameFormat = "%M-%m-%c"
*.host4.app[4].source.displayStringTextFormat = "sent %p pk (%l)"
*.host4.app[4].messageLength = 19B
*.host4.app[4].sendInterval = 1ms
*.host4.app[4].startTime = 20ms
*.host4.app[4].stopTime = 35ms
*.host4.app[4].display-name = "type2_15"
*.host4.app[4].destPort = 1000
*.host4.app[5].typename = "UdpBasicApp"
*.host4.app[5].destAddresses = "host3"
*.host4.app[5].source.packetNameFormat = "%M-%m-%c"
*.host4.app[5].source.displayStringTextFormat = "sent %p pk (%l)"
*.host4.app[5].messageLength = 19B
*.host4.app[5].sendInterval = 1ms
*.host4.app[5].startTime = 40ms
*.host4.app[5].stopTime = 43ms
*.host4.app[5].display-name = "type2_15"
*.host4.app[5].destPort = 1000
*.host4.app[6].typename = "UdpBasicApp"
*.host4.app[6].destAddresses = "host3"
*.host4.app[6].source.packetNameFormat = "%M-%m-%c"
*.host4.app[6].source.displayStringTextFormat = "sent %p pk (%l)"
*.host4.app[6].messageLength = 19B
*.host4.app[6].sendInterval = 1ms
*.host4.app[6].startTime = 44ms
*.host4.app[6].stopTime = 48ms
*.host4.app[6].display-name = "type2_15"
*.host4.app[6].destPort = 1000
*.host4.app[7].typename = "UdpBasicApp"
*.host4.app[7].destAddresses = "host3"
*.host4.app[7].source.packetNameFormat = "%M-%m-%c"
*.host4.app[7].source.displayStringTextFormat = "sent %p pk (%l)"
*.host4.app[7].messageLength = 19B
*.host4.app[7].sendInterval = 1ms
*.host4.app[7].startTime = 58ms
*.host4.app[7].stopTime = 65ms
*.host4.app[7].display-name = "type2_15"
*.host4.app[7].destPort = 1000
*.host4.app[8].typename = "UdpBasicApp"
*.host4.app[8].destAddresses = "host3"
*.host4.app[8].source.packetNameFormat = "%M-%m-%c"
*.host4.app[8].source.displayStringTextFormat = "sent %p pk (%l)"
*.host4.app[8].messageLength = 19B
*.host4.app[8].sendInterval = 1ms
*.host4.app[8].startTime = 71ms
*.host4.app[8].stopTime = 78ms
*.host4.app[8].display-name = "type2_15"
*.host4.app[8].destPort = 1000
*.host4.app[9].typename = "UdpBasicApp"
*.host4.app[9].destAddresses = "host3"
*.host4.app[9].source.packetNameFormat = "%M-%m-%c"
*.host4.app[9].source.displayStringTextFormat = "sent %p pk (%l)"
*.host4.app[9].messageLength = 19B
*.host4.app[9].sendInterval = 1ms
*.host4.app[9].startTime = 98ms
*.host4.app[9].stopTime = 100ms
*.host4.app[9].display-name = "type2_15"
*.host4.app[9].destPort = 1000
*.host5.numApps = 12
*.host5.app[0].typename = "UdpSourceApp"
*.host5.app[0].io.destAddress = "host1"
*.host5.app[0].source.packetNameFormat = "%M-%m-%c"
*.host5.app[0].source.displayStringTextFormat = "sent %p pk (%l)"
*.host5.app[0].source.packetLength = 13B
*.host5.app[0].source.productionInterval = 1ms
*.host5.app[0].display-name = "type1_1"
*.host5.app[0].io.destPort = 1000
*.host5.app[1].typename = "UdpSourceApp"
*.host5.app[1].io.destAddress = "host14"
*.host5.app[1].source.packetNameFormat = "%M-%m-%c"
*.host5.app[1].source.displayStringTextFormat = "sent %p pk (%l)"
*.host5.app[1].source.packetLength = 20B
*.host5.app[1].source.productionInterval = 1ms
*.host5.app[1].display-name = "type1_7"
*.host5.app[1].io.destPort = 1000
*.host5.app[2].typename = "UdpBasicApp"
*.host5.app[2].destAddresses = "host7"
*.host5.app[2].source.packetNameFormat = "%M-%m-%c"
*.host5.app[2].source.displayStringTextFormat = "sent %p pk (%l)"
*.host5.app[2].messageLength = 20B
*.host5.app[2].sendInterval = 1ms
*.host5.app[2].startTime = 1ms
*.host5.app[2].stopTime = 9ms
*.host5.app[2].display-name = "type2_2"
*.host5.app[2].destPort = 1001
*.host5.app[3].typename = "UdpBasicApp"
*.host5.app[3].destAddresses = "host7"
*.host5.app[3].source.packetNameFormat = "%M-%m-%c"
*.host5.app[3].source.displayStringTextFormat = "sent %p pk (%l)"
*.host5.app[3].messageLength = 20B
*.host5.app[3].sendInterval = 1ms
*.host5.app[3].startTime = 20ms
*.host5.app[3].stopTime = 40ms
*.host5.app[3].display-name = "type2_2"
*.host5.app[3].destPort = 1001
*.host5.app[4].typename = "UdpBasicApp"
*.host5.app[4].destAddresses = "host7"
*.host5.app[4].source.packetNameFormat = "%M-%m-%c"
*.host5.app[4].source.displayStringTextFormat = "sent %p pk (%l)"
*.host5.app[4].messageLength = 20B
*.host5.app[4].sendInterval = 1ms
*.host5.app[4].startTime = 52ms
*.host5.app[4].stopTime = 66ms
*.host5.app[4].display-name = "type2_2"
*.host5.app[4].destPort = 1001
*.host5.app[5].typename = "UdpBasicApp"
*.host5.app[5].destAddresses = "host7"
*.host5.app[5].source.packetNameFormat = "%M-%m-%c"
*.host5.app[5].source.displayStringTextFormat = "sent %p pk (%l)"
*.host5.app[5].messageLength = 20B
*.host5.app[5].sendInterval = 1ms
*.host5.app[5].startTime = 78ms
*.host5.app[5].stopTime = 86ms
*.host5.app[5].display-name = "type2_2"
*.host5.app[5].destPort = 1001
*.host5.app[6].typename = "UdpBasicApp"
*.host5.app[6].destAddresses = "host7"
*.host5.app[6].source.packetNameFormat = "%M-%m-%c"
*.host5.app[6].source.displayStringTextFormat = "sent %p pk (%l)"
*.host5.app[6].messageLength = 23B
*.host5.app[6].sendInterval = 1ms
*.host5.app[6].startTime = 0ms
*.host5.app[6].stopTime = 4ms
*.host5.app[6].display-name = "type2_4"
*.host5.app[6].destPort = 1003
*.host5.app[7].typename = "UdpBasicApp"
*.host5.app[7].destAddresses = "host7"
*.host5.app[7].source.packetNameFormat = "%M-%m-%c"
*.host5.app[7].source.displayStringTextFormat = "sent %p pk (%l)"
*.host5.app[7].messageLength = 23B
*.host5.app[7].sendInterval = 1ms
*.host5.app[7].startTime = 26ms
*.host5.app[7].stopTime = 54ms
*.host5.app[7].display-name = "type2_4"
*.host5.app[7].destPort = 1003
*.host5.app[8].typename = "UdpBasicApp"
*.host5.app[8].destAddresses = "host7"
*.host5.app[8].source.packetNameFormat = "%M-%m-%c"
*.host5.app[8].source.displayStringTextFormat = "sent %p pk (%l)"
*.host5.app[8].messageLength = 23B
*.host5.app[8].sendInterval = 1ms
*.host5.app[8].startTime = 55ms
*.host5.app[8].stopTime = 61ms
*.host5.app[8].display-name = "type2_4"
*.host5.app[8].destPort = 1003
*.host5.app[9].typename = "UdpBasicApp"
*.host5.app[9].destAddresses = "host7"
*.host5.app[9].source.packetNameFormat = "%M-%m-%c"
*.host5.app[9].source.displayStringTextFormat = "sent %p pk (%l)"
*.host5.app[9].messageLength = 23B
*.host5.app[9].sendInterval = 1ms
*.host5.app[9].startTime = 64ms
*.host5.app[9].stopTime = 77ms
*.host5.app[9].display-name = "type2_4"
*.host5.app[9].destPort = 1003
*.host5.app[10].typename = "UdpBasicApp"
*.host5.app[10].destAddresses = "host7"
*.host5.app[10].source.packetNameFormat = "%M-%m-%c"
*.host5.app[10].source.displayStringTextFormat = "sent %p pk (%l)"
*.host5.app[10].messageLength = 23B
*.host5.app[10].sendInterval = 1ms
*.host5.app[10].startTime = 87ms
*.host5.app[10].stopTime = 94ms
*.host5.app[10].display-name = "type2_4"
*.host5.app[10].destPort = 1003
*.host5.app[11].typename = "UdpBasicApp"
*.host5.app[11].destAddresses = "host7"
*.host5.app[11].source.packetNameFormat = "%M-%m-%c"
*.host5.app[11].source.displayStringTextFormat = "sent %p pk (%l)"
*.host5.app[11].messageLength = 23B
*.host5.app[11].sendInterval = 1ms
*.host5.app[11].startTime = 97ms
*.host5.app[11].stopTime = 100ms
*.host5.app[11].display-name = "type2_4"
*.host5.app[11].destPort = 1003
*.host6.numApps = 5
*.host6.app[0].typename = "UdpBasicApp"
*.host6.app[0].destAddresses = "host14"
*.host6.app[0].source.packetNameFormat = "%M-%m-%c"
*.host6.app[0].source.displayStringTextFormat = "sent %p pk (%l)"
*.host6.app[0].messageLength = 13B
*.host6.app[0].sendInterval = 1ms
*.host6.app[0].startTime = 27ms
*.host6.app[0].stopTime = 31ms
*.host6.app[0].display-name = "type2_5"
*.host6.app[0].destPort = 1001
*.host6.app[1].typename = "UdpBasicApp"
*.host6.app[1].destAddresses = "host14"
*.host6.app[1].source.packetNameFormat = "%M-%m-%c"
*.host6.app[1].source.displayStringTextFormat = "sent %p pk (%l)"
*.host6.app[1].messageLength = 13B
*.host6.app[1].sendInterval = 1ms
*.host6.app[1].startTime = 43ms
*.host6.app[1].stopTime = 100ms
*.host6.app[1].display-name = "type2_5"
*.host6.app[1].destPort = 1001
*.host6.app[2].typename = "UdpBasicApp"
*.host6.app[2].destAddresses = "host1"
*.host6.app[2].source.packetNameFormat = "%M-%m-%c"
*.host6.app[2].source.displayStringTextFormat = "sent %p pk (%l)"
*.host6.app[2].messageLength = 17B
*.host6.app[2].sendInterval = 1ms
*.host6.app[2].startTime = 1ms
*.host6.app[2].stopTime = 63ms
*.host6.app[2].display-name = "type2_8"
*.host6.app[2].destPort = 1002
*.host6.app[3].typename = "UdpBasicApp"
*.host6.app[3].destAddresses = "host1"
*.host6.app[3].source.packetNameFormat = "%M-%m-%c"
*.host6.app[3].source.displayStringTextFormat = "sent %p pk (%l)"
*.host6.app[3].messageLength = 17B
*.host6.app[3].sendInterval = 1ms
*.host6.app[3].startTime = 64ms
*.host6.app[3].stopTime = 71ms
*.host6.app[3].display-name = "type2_8"
*.host6.app[3].destPort = 1002
*.host6.app[4].typename = "UdpBasicApp"
*.host6.app[4].destAddresses = "host1"
*.host6.app[4].source.packetNameFormat = "%M-%m-%c"
*.host6.app[4].source.displayStringTextFormat = "sent %p pk (%l)"
*.host6.app[4].messageLength = 17B
*.host6.app[4].sendInterval = 1ms
*.host6.app[4].startTime = 74ms
*.host6.app[4].stopTime = 100ms
*.host6.app[4].display-name = "type2_8"
*.host6.app[4].destPort = 1002
*.host7.numApps = 4
*.host7.app[0].typename = "UdpSinkApp"
*.host7.app[0].io.localPort = 1000
*.host7.app[1].typename = "UdpSinkApp"
*.host7.app[1].io.localPort = 1001
*.host7.app[2].typename = "UdpSinkApp"
*.host7.app[2].io.localPort = 1002
*.host7.app[3].typename = "UdpSinkApp"
*.host7.app[3].io.localPort = 1003
*.host8.numApps = 8
*.host8.app[0].typename = "UdpSinkApp"
*.host8.app[0].io.localPort = 1000
*.host8.app[1].typename = "UdpBasicApp"
*.host8.app[1].destAddresses = "host12"
*.host8.app[1].source.packetNameFormat = "%M-%m-%c"
*.host8.app[1].source.displayStringTextFormat = "sent %p pk (%l)"
*.host8.app[1].messageLength = 15B
*.host8.app[1].sendInterval = 1ms
*.host8.app[1].startTime = 2ms
*.host8.app[1].stopTime = 19ms
*.host8.app[1].display-name = "type2_11"
*.host8.app[1].destPort = 1001
*.host8.app[2].typename = "UdpBasicApp"
*.host8.app[2].destAddresses = "host12"
*.host8.app[2].source.packetNameFormat = "%M-%m-%c"
*.host8.app[2].source.displayStringTextFormat = "sent %p pk (%l)"
*.host8.app[2].messageLength = 15B
*.host8.app[2].sendInterval = 1ms
*.host8.app[2].startTime = 21ms
*.host8.app[2].stopTime = 22ms
*.host8.app[2].display-name = "type2_11"
*.host8.app[2].destPort = 1001
*.host8.app[3].typename = "UdpBasicApp"
*.host8.app[3].destAddresses = "host12"
*.host8.app[3].source.packetNameFormat = "%M-%m-%c"
*.host8.app[3].source.displayStringTextFormat = "sent %p pk (%l)"
*.host8.app[3].messageLength = 15B
*.host8.app[3].sendInterval = 1ms
*.host8.app[3].startTime = 29ms
*.host8.app[3].stopTime = 44ms