
[General]
network = TSN_multipath
sim-time-limit = 10ms

# disable automatic MAC forwarding table configuration
*.macForwardingTableConfigurator.typename = ""

# enable frame replication and elimination
*.*.hasStreamRedundancy = true

# enable stream policing in layer 2
*.*.bridging.streamRelay.typename = "StreamRelayLayer"
*.*.bridging.streamCoder.typename = "StreamCoderLayer"

# enable automatic stream redundancy configurator
*.streamRedundancyConfigurator.typename = "StreamRedundancyConfigurator"

*.host0.eth[0].bitrate = 100Mbps
*.switch0.eth[0].bitrate = 100Mbps
*.switch0.eth[1].bitrate = 160Mbps
*.switch0.eth[2].bitrate = 200Mbps
*.switch0.eth[3].bitrate = 230Mbps
*.switch0.eth[4].bitrate = 220Mbps
*.switch0.eth[5].bitrate = 190Mbps
*.switch0.eth[6].bitrate = 200Mbps
*.host1.eth[0].bitrate = 100Mbps
*.switch1.eth[0].bitrate = 100Mbps
*.switch1.eth[1].bitrate = 160Mbps
*.switch1.eth[2].bitrate = 210Mbps
*.switch1.eth[3].bitrate = 130Mbps
*.switch1.eth[4].bitrate = 180Mbps
*.switch1.eth[5].bitrate = 160Mbps
*.host2.eth[0].bitrate = 100Mbps
*.switch2.eth[0].bitrate = 100Mbps
*.switch2.eth[1].bitrate = 220Mbps
*.switch2.eth[2].bitrate = 160Mbps
*.switch2.eth[3].bitrate = 170Mbps
*.switch2.eth[4].bitrate = 210Mbps
*.switch2.eth[5].bitrate = 240Mbps
*.switch2.eth[6].bitrate = 140Mbps
*.switch2.eth[7].bitrate = 220Mbps
*.host3.eth[0].bitrate = 100Mbps
*.switch3.eth[0].bitrate = 100Mbps
*.switch3.eth[1].bitrate = 200Mbps
*.switch3.eth[2].bitrate = 210Mbps
*.switch3.eth[3].bitrate = 160Mbps
*.switch3.eth[4].bitrate = 150Mbps
*.switch3.eth[5].bitrate = 240Mbps
*.switch3.eth[6].bitrate = 190Mbps
*.host4.eth[0].bitrate = 100Mbps
*.switch4.eth[0].bitrate = 100Mbps
*.switch4.eth[1].bitrate = 170Mbps
*.switch4.eth[2].bitrate = 210Mbps
*.switch4.eth[3].bitrate = 210Mbps
*.switch4.eth[4].bitrate = 160Mbps
*.switch4.eth[5].bitrate = 140Mbps
*.host5.eth[0].bitrate = 100Mbps
*.switch5.eth[0].bitrate = 100Mbps
*.switch5.eth[1].bitrate = 210Mbps
*.switch5.eth[2].bitrate = 240Mbps
*.switch5.eth[3].bitrate = 150Mbps
*.switch5.eth[4].bitrate = 200Mbps
*.switch5.eth[5].bitrate = 160Mbps
*.host6.eth[0].bitrate = 100Mbps
*.switch6.eth[0].bitrate = 100Mbps
*.switch6.eth[1].bitrate = 230Mbps
*.switch6.eth[2].bitrate = 150Mbps
*.switch6.eth[3].bitrate = 190Mbps
*.switch6.eth[4].bitrate = 130Mbps
*.switch6.eth[5].bitrate = 190Mbps
*.switch6.eth[6].bitrate = 150Mbps
*.switch6.eth[7].bitrate = 130Mbps
*.switch6.eth[8].bitrate = 120Mbps
*.switch6.eth[9].bitrate = 220Mbps
*.host7.eth[0].bitrate = 100Mbps
*.switch7.eth[0].bitrate = 100Mbps
*.switch7.eth[1].bitrate = 160Mbps
*.switch7.eth[2].bitrate = 130Mbps
*.switch7.eth[3].bitrate = 200Mbps
*.switch7.eth[4].bitrate = 180Mbps
*.switch7.eth[5].bitrate = 240Mbps
*.switch7.eth[6].bitrate = 140Mbps
*.switch7.eth[7].bitrate = 160Mbps
*.switch7.eth[8].bitrate = 220Mbps
*.switch7.eth[9].bitrate = 120Mbps
*.host8.eth[0].bitrate = 100Mbps
*.switch8.eth[0].bitrate = 100Mbps
*.switch8.eth[1].bitrate = 160Mbps
*.switch8.eth[2].bitrate = 140Mbps
*.switch8.eth[3].bitrate = 200Mbps
*.switch8.eth[4].bitrate = 120Mbps
*.host9.eth[0].bitrate = 100Mbps
*.switch9.eth[0].bitrate = 100Mbps
*.switch9.eth[1].bitrate = 120Mbps
*.switch9.eth[2].bitrate = 220Mbps
*.switch9.eth[3].bitrate = 160Mbps
*.switch9.eth[4].bitrate = 220Mbps
*.switch9.eth[5].bitrate = 160Mbps
*.switch9.eth[6].bitrate = 220Mbps

# apps
            
*.host0.numApps = 39

*.host0.app[0].typename = "UdpSinkApp"
*.host0.app[0].io.localPort = 1000
                        
*.host0.app[1].typename = "UdpSinkApp"
*.host0.app[1].io.localPort = 1001
                        
*.host0.app[2].typename = "UdpBasicApp"
*.host0.app[2].destAddresses = "host1"
*.host0.app[2].source.packetNameFormat = "%M-%m-%c"
*.host0.app[2].source.displayStringTextFormat = "sent %p pk (%l)"
*.host0.app[2].messageLength = 15B
*.host0.app[2].sendInterval = 100us
*.host0.app[2].startTime = 0us
*.host0.app[2].stopTime = 100us
*.host0.app[2].display-name = "type2_1"
*.host0.app[2].destPort = 1001
                            
*.host0.app[3].typename = "UdpBasicApp"
*.host0.app[3].destAddresses = "host1"
*.host0.app[3].source.packetNameFormat = "%M-%m-%c"
*.host0.app[3].source.displayStringTextFormat = "sent %p pk (%l)"
*.host0.app[3].messageLength = 15B
*.host0.app[3].sendInterval = 100us
*.host0.app[3].startTime = 200us
*.host0.app[3].stopTime = 400us
*.host0.app[3].display-name = "type2_1"
*.host0.app[3].destPort = 1001
                            
*.host0.app[4].typename = "UdpBasicApp"
*.host0.app[4].destAddresses = "host1"
*.host0.app[4].source.packetNameFormat = "%M-%m-%c"
*.host0.app[4].source.displayStringTextFormat = "sent %p pk (%l)"
*.host0.app[4].messageLength = 15B
*.host0.app[4].sendInterval = 100us
*.host0.app[4].startTime = 500us
*.host0.app[4].stopTime = 600us
*.host0.app[4].display-name = "type2_1"
*.host0.app[4].destPort = 1001
                            
*.host0.app[5].typename = "UdpBasicApp"
*.host0.app[5].destAddresses = "host1"
*.host0.app[5].source.packetNameFormat = "%M-%m-%c"
*.host0.app[5].source.displayStringTextFormat = "sent %p pk (%l)"
*.host0.app[5].messageLength = 15B
*.host0.app[5].sendInterval = 100us
*.host0.app[5].startTime = 700us
*.host0.app[5].stopTime = 800us
*.host0.app[5].display-name = "type2_1"
*.host0.app[5].destPort = 1001
                            
*.host0.app[6].typename = "UdpBasicApp"
*.host0.app[6].destAddresses = "host1"
*.host0.app[6].source.packetNameFormat = "%M-%m-%c"
*.host0.app[6].source.displayStringTextFormat = "sent %p pk (%l)"
*.host0.app[6].messageLength = 15B
*.host0.app[6].sendInterval = 100us
*.host0.app[6].startTime = 900us
*.host0.app[6].stopTime = 1300us
*.host0.app[6].display-name = "type2_1"
*.host0.app[6].destPort = 1001
                            
*.host0.app[7].typename = "UdpBasicApp"
*.host0.app[7].destAddresses = "host1"
*.host0.app[7].source.packetNameFormat = "%M-%m-%c"
*.host0.app[7].source.displayStringTextFormat = "sent %p pk (%l)"
*.host0.app[7].messageLength = 15B
*.host0.app[7].sendInterval = 100us
*.host0.app[7].startTime = 1400us
*.host0.app[7].stopTime = 1500us
*.host0.app[7].display-name = "type2_1"
*.host0.app[7].destPort = 1001
                            
*.host0.app[8].typename = "UdpBasicApp"
*.host0.app[8].destAddresses = "host1"
*.host0.app[8].source.packetNameFormat = "%M-%m-%c"
*.host0.app[8].source.displayStringTextFormat = "sent %p pk (%l)"
*.host0.app[8].messageLength = 15B
*.host0.app[8].sendInterval = 100us
*.host0.app[8].startTime = 2000us
*.host0.app[8].stopTime = 2400us
*.host0.app[8].display-name = "type2_1"
*.host0.app[8].destPort = 1001
                            
*.host0.app[9].typename = "UdpBasicApp"
*.host0.app[9].destAddresses = "host1"
*.host0.app[9].source.packetNameFormat = "%M-%m-%c"
*.host0.app[9].source.displayStringTextFormat = "sent %p pk (%l)"
*.host0.app[9].messageLength = 15B
*.host0.app[9].sendInterval = 100us
*.host0.app[9].startTime = 2500us
*.host0.app[9].stopTime = 2600us
*.host0.app[9].display-name = "type2_1"
*.host0.app[9].destPort = 1001
                            
*.host0.app[10].typename = "UdpBasicApp"
*.host0.app[10].destAddresses = "host1"
*.host0.app[10].source.packetNameFormat = "%M-%m-%c"
*.host0.app[10].source.displayStringTextFormat = "sent %p pk (%l)"
*.host0.app[10].messageLength = 15B
*.host0.app[10].sendInterval = 100us
*.host0.app[10].startTime = 2700us
*.host0.app[10].stopTime = 3100us
*.host0.app[10].display-name = "type2_1"
*.host0.app[10].destPort = 1001
                            
*.host0.app[11].typename = "UdpBasicApp"
*.host0.app[11].destAddresses = "host1"
*.host0.app[11].source.packetNameFormat = "%M-%m-%c"
*.host0.app[11].source.displayStringTextFormat = "sent %p pk (%l)"
*.host0.app[11].messageLength = 15B
*.host0.app[11].sendInterval = 100us
*.host0.app[11].startTime = 3300us
*.host0.app[11].stopTime = 3500us
*.host0.app[11].display-name = "type2_1"
*.host0.app[11].destPort = 1001
                            
*.host0.app[12].typename = "UdpBasicApp"
*.host0.app[12].destAddresses = "host1"
*.host0.app[12].source.packetNameFormat = "%M-%m-%c"
*.host0.app[12].source.displayStringTextFormat = "sent %p pk (%l)"
*.host0.app[12].messageLength = 15B
*.host0.app[12].sendInterval = 100us
*.host0.app[12].startTime = 3600us
*.host0.app[12].stopTime = 4100us
*.host0.app[12].display-name = "type2_1"
*.host0.app[12].destPort = 1001
                            
*.host0.app[13].typename = "UdpBasicApp"
*.host0.app[13].destAddresses = "host1"
*.host0.app[13].source.packetNameFormat = "%M-%m-%c"
*.host0.app[13].source.displayStringTextFormat = "sent %p pk (%l)"
*.host0.app[13].messageLength = 15B
*.host0.app[13].sendInterval = 100us
*.host0.app[13].startTime = 4200us
*.host0.app[13].stopTime = 4400us
*.host0.app[13].display-name = "type2_1"
*.host0.app[13].destPort = 1001
                            
*.host0.app[14].typename = "UdpBasicApp"
*.host0.app[14].destAddresses = "host1"
*.host0.app[14].source.packetNameFormat = "%M-%m-%c"
*.host0.app[14].source.displayStringTextFormat = "sent %p pk (%l)"
*.host0.app[14].messageLength = 15B
*.host0.app[14].sendInterval = 100us
*.host0.app[14].startTime = 4500us
*.host0.app[14].stopTime = 4600us
*.host0.app[14].display-name = "type2_1"
*.host0.app[14].destPort = 1001
                            
*.host0.app[15].typename = "UdpBasicApp"
*.host0.app[15].destAddresses = "host1"
*.host0.app[15].source.packetNameFormat = "%M-%m-%c"
*.host0.app[15].source.displayStringTextFormat = "sent %p pk (%l)"
*.host0.app[15].messageLength = 15B
*.host0.app[15].sendInterval = 100us
*.host0.app[15].startTime = 4700us
*.host0.app[15].stopTime = 4900us
*.host0.app[15].display-name = "type2_1"
*.host0.app[15].destPort = 1001
                            
*.host0.app[16].typename = "UdpBasicApp"
*.host0.app[16].destAddresses = "host1"
*.host0.app[16].source.packetNameFormat = "%M-%m-%c"
*.host0.app[16].source.displayStringTextFormat = "sent %p pk (%l)"
*.host0.app[16].messageLength = 15B
*.host0.app[16].sendInterval = 100us
*.host0.app[16].startTime = 5200us
*.host0.app[16].stopTime = 5500us
*.host0.app[16].display-name = "type2_1"
*.host0.app[16].destPort = 1001
                            
*.host0.app[17].typename = "UdpBasicApp"
*.host0.app[17].destAddresses = "host1"
*.host0.app[17].source.packetNameFormat = "%M-%m-%c"
*.host0.app[17].source.displayStringTextFormat = "sent %p pk (%l)"
*.host0.app[17].messageLength = 15B
*.host0.app[17].sendInterval = 100us
*.host0.app[17].startTime = 5700us
*.host0.app[17].stopTime = 5800us
*.host0.app[17].display-name = "type2_1"
*.host0.app[17].destPort = 1001
                            
*.host0.app[18].typename = "UdpBasicApp"
*.host0.app[18].destAddresses = "host1"
*.host0.app[18].source.packetNameFormat = "%M-%m-%c"
*.host0.app[18].source.displayStringTextFormat = "sent %p pk (%l)"
*.host0.app[18].messageLength = 15B
*.host0.app[18].sendInterval = 100us
*.host0.app[18].startTime = 6200us
*.host0.app[18].stopTime = 6300us
*.host0.app[18].display-name = "type2_1"
*.host0.app[18].destPort = 1001
                            
*.host0.app[19].typename = "UdpBasicApp"
*.host0.app[19].destAddresses = "host1"
*.host0.app[19].source.packetNameFormat = "%M-%m-%c"
*.host0.app[19].source.displayStringTextFormat = "sent %p pk (%l)"
*.host0.app[19].messageLength = 15B
*.host0.app[19].sendInterval = 100us
*.host0.app[19].startTime = 6600us
*.host0.app[19].stopTime = 7400us
*.host0.app[19].display-name = "type2_1"
*.host0.app[19].destPort = 1001
                            
*.host0.app[20].typename = "UdpBasicApp"
*.host0.app[20].destAddresses = "host1"
*.host0.app[20].source.packetNameFormat = "%M-%m-%c"
*.host0.app[20].source.displayStringTextFormat = "sent %p pk (%l)"
*.host0.app[20].messageLength = 15B
*.host0.app[20].sendInterval = 100us
*.host0.app[20].startTime = 7700us
*.host0.app[20].stopTime = 8500us
*.host0.app[20].display-name = "type2_1"
*.host0.app[20].destPort = 1001
                            
*.host0.app[21].typename = "UdpBasicApp"
*.host0.app[21].destAddresses = "host1"
*.host0.app[21].source.packetNameFormat = "%M-%m-%c"
*.host0.app[21].source.displayStringTextFormat = "sent %p pk (%l)"
*.host0.app[21].messageLength = 15B
*.host0.app[21].sendInterval = 100us
*.host0.app[21].startTime = 8600us
*.host0.app[21].stopTime = 9000us
*.host0.app[21].display-name = "type2_1"
*.host0.app[21].destPort = 1001
                            
*.host0.app[22].typename = "UdpBasicApp"
*.host0.app[22].destAddresses = "host1"
*.host0.app[22].source.packetNameFormat = "%M-%m-%c"
*.host0.app[22].source.displayStringTextFormat = "sent %p pk (%l)"
*.host0.app[22].messageLength = 15B
*.host0.app[22].sendInterval = 100us
*.host0.app[22].startTime = 9100us
*.host0.app[22].stopTime = 9600us
*.host0.app[22].display-name = "type2_1"
*.host0.app[22].destPort = 1001
                            
*.host0.app[23].typename = "UdpBasicApp"
*.host0.app[23].destAddresses = "host1"
*.host0.app[23].source.packetNameFormat = "%M-%m-%c"
*.host0.app[23].source.displayStringTextFormat = "sent %p pk (%l)"
*.host0.app[23].messageLength = 15B
*.host0.app[23].sendInterval = 100us
*.host0.app[23].startTime = 9900us
*.host0.app[23].stopTime = 10000us
*.host0.app[23].display-name = "type2_1"
*.host0.app[23].destPort = 1001
                            
*.host0.app[24].typename = "UdpBasicApp"
*.host0.app[24].destAddresses = "host1"
*.host0.app[24].source.packetNameFormat = "%M-%m-%c"
*.host0.app[24].source.displayStringTextFormat = "sent %p pk (%l)"
*.host0.app[24].messageLength = 17B
*.host0.app[24].sendInterval = 100us
*.host0.app[24].startTime = 100us
*.host0.app[24].stopTime = 200us
*.host0.app[24].display-name = "type2_5"
*.host0.app[24].destPort = 1002
                            
*.host0.app[25].typename = "UdpBasicApp"
*.host0.app[25].destAddresses = "host1"
*.host0.app[25].source.packetNameFormat = "%M-%m-%c"
*.host0.app[25].source.displayStringTextFormat = "sent %p pk (%l)"
*.host0.app[25].messageLength = 17B
*.host0.app[25].sendInterval = 100us
*.host0.app[25].startTime = 600us
*.host0.app[25].stopTime = 700us
*.host0.app[25].display-name = "type2_5"
*.host0.app[25].destPort = 1002
                            
*.host0.app[26].typename = "UdpBasicApp"
*.host0.app[26].destAddresses = "host1"
*.host0.app[26].source.packetNameFormat = "%M-%m-%c"
*.host0.app[26].source.displayStringTextFormat = "sent %p pk (%l)"
*.host0.app[26].messageLength = 17B
*.host0.app[26].sendInterval = 100us
*.host0.app[26].startTime = 1100us
*.host0.app[26].stopTime = 2300us
*.host0.app[26].display-name = "type2_5"
*.host0.app[26].destPort = 1002
                            
*.host0.app[27].typename = "UdpBasicApp"
*.host0.app[27].destAddresses = "host1"
*.host0.app[27].source.packetNameFormat = "%M-%m-%c"
*.host0.app[27].source.displayStringTextFormat = "sent %p pk (%l)"
*.host0.app[27].messageLength = 17B
*.host0.app[27].sendInterval = 100us
*.host0.app[27].startTime = 2400us
*.host0.app[27].stopTime = 3100us
*.host0.app[27].display-name = "type2_5"
*.host0.app[27].destPort = 1002
                            
*.host0.app[28].typename = "UdpBasicApp"
*.host0.app[28].destAddresses = "host1"
*.host0.app[28].source.packetNameFormat = "%M-%m-%c"
*.host0.app[28].source.displayStringTextFormat = "sent %p pk (%l)"
*.host0.app[28].messageLength = 17B
*.host0.app[28].sendInterval = 100us
*.host0.app[28].startTime = 3200us
*.host0.app[28].stopTime = 3900us
*.host0.app[28].display-name = "type2_5"
*.host0.app[28].destPort = 1002
                            
*.host0.app[29].typename = "UdpBasicApp"
*.host0.app[29].destAddresses = "host1"
*.host0.app[29].source.packetNameFormat = "%M-%m-%c"
*.host0.app[29].source.displayStringTextFormat = "sent %p pk (%l)"
*.host0.app[29].messageLength = 17B
*.host0.app[29].sendInterval = 100us
*.host0.app[29].startTime = 4300us
*.host0.app[29].stopTime = 4600us
*.host0.app[29].display-name = "type2_5"
*.host0.app[29].destPort = 1002
                            
*.host0.app[30].typename = "UdpBasicApp"
*.host0.app[30].destAddresses = "host1"
*.host0.app[30].source.packetNameFormat = "%M-%m-%c"
*.host0.app[30].source.displayStringTextFormat = "sent %p pk (%l)"
*.host0.app[30].messageLength = 17B
*.host0.app[30].sendInterval = 100us
*.host0.app[30].startTime = 4900us
*.host0.app[30].stopTime = 5200us
*.host0.app[30].display-name = "type2_5"
*.host0.app[30].destPort = 1002
                            
*.host0.app[31].typename = "UdpBasicApp"
*.host0.app[31].destAddresses = "host1"
*.host0.app[31].source.packetNameFormat = "%M-%m-%c"
*.host0.app[31].source.displayStringTextFormat = "sent %p pk (%l)"
*.host0.app[31].messageLength = 17B
*.host0.app[31].sendInterval = 100us
*.host0.app[31].startTime = 5400us
*.host0.app[31].stopTime = 6000us
*.host0.app[31].display-name = "type2_5"
*.host0.app[31].destPort = 1002
                            
*.host0.app[32].typename = "UdpBasicApp"
*.host0.app[32].destAddresses = "host1"
*.host0.app[32].source.packetNameFormat = "%M-%m-%c"
*.host0.app[32].source.displayStringTextFormat = "sent %p pk (%l)"
*.host0.app[32].messageLength = 17B
*.host0.app[32].sendInterval = 100us
*.host0.app[32].startTime = 6100us
*.host0.app[32].stopTime = 6300us
*.host0.app[32].display-name = "type2_5"
*.host0.app[32].destPort = 1002
                            
*.host0.app[33].typename = "UdpBasicApp"
*.host0.app[33].destAddresses = "host1"
*.host0.app[33].source.packetNameFormat = "%M-%m-%c"
*.host0.app[33].source.displayStringTextFormat = "sent %p pk (%l)"
*.host0.app[33].messageLength = 17B
*.host0.app[33].sendInterval = 100us
*.host0.app[33].startTime = 6800us
*.host0.app[33].stopTime = 6900us
*.host0.app[33].display-name = "type2_5"
*.host0.app[33].destPort = 1002
                            
*.host0.app[34].typename = "UdpBasicApp"
*.host0.app[34].destAddresses = "host1"
*.host0.app[34].source.packetNameFormat = "%M-%m-%c"
*.host0.app[34].source.displayStringTextFormat = "sent %p pk (%l)"
*.host0.app[34].messageLength = 17B
*.host0.app[34].sendInterval = 100us
*.host0.app[34].startTime = 7000us
*.host0.app[34].stopTime = 7600us
*.host0.app[34].display-name = "type2_5"
*.host0.app[34].destPort = 1002
                            
*.host0.app[35].typename = "UdpBasicApp"
*.host0.app[35].destAddresses = "host1"
*.host0.app[35].source.packetNameFormat = "%M-%m-%c"
*.host0.app[35].source.displayStringTextFormat = "sent %p pk (%l)"
*.host0.app[35].messageLength = 17B
*.host0.app[35].sendInterval = 100us
*.host0.app[35].startTime = 8100us
*.host0.app[35].stopTime = 8400us
*.host0.app[35].display-name = "type2_5"
*.host0.app[35].destPort = 1002
                            
*.host0.app[36].typename = "UdpBasicApp"
*.host0.app[36].destAddresses = "host1"
*.host0.app[36].source.packetNameFormat = "%M-%m-%c"
*.host0.app[36].source.displayStringTextFormat = "sent %p pk (%l)"
*.host0.app[36].messageLength = 17B
*.host0.app[36].sendInterval = 100us
*.host0.app[36].startTime = 8600us
*.host0.app[36].stopTime = 9000us
*.host0.app[36].display-name = "type2_5"
*.host0.app[36].destPort = 1002
                            
*.host0.app[37].typename = "UdpBasicApp"
*.host0.app[37].destAddresses = "host1"
*.host0.app[37].source.packetNameFormat = "%M-%m-%c"
*.host0.app[37].source.displayStringTextFormat = "sent %p pk (%l)"
*.host0.app[37].messageLength = 17B
*.host0.app[37].sendInterval = 100us
*.host0.app[37].startTime = 9800us
*.host0.app[37].stopTime = 10000us
*.host0.app[37].display-name = "type2_5"
*.host0.app[37].destPort = 1002
                            
*.host0.app[38].typename = "UdpSinkApp"
*.host0.app[38].io.localPort = 1002
                        
*.host1.numApps = 52

*.host1.app[0].typename = "UdpSinkApp"
*.host1.app[0].io.localPort = 1000
                        
*.host1.app[1].typename = "UdpSinkApp"
*.host1.app[1].io.localPort = 1001
                        
*.host1.app[2].typename = "UdpBasicApp"
*.host1.app[2].destAddresses = "host3"
*.host1.app[2].source.packetNameFormat = "%M-%m-%c"
*.host1.app[2].source.displayStringTextFormat = "sent %p pk (%l)"
*.host1.app[2].messageLength = 14B
*.host1.app[2].sendInterval = 100us
*.host1.app[2].startTime = 1200us
*.host1.app[2].stopTime = 1600us
*.host1.app[2].display-name = "type2_3"
*.host1.app[2].destPort = 1000
                            
*.host1.app[3].typename = "UdpBasicApp"
*.host1.app[3].destAddresses = "host3"
*.host1.app[3].source.packetNameFormat = "%M-%m-%c"
*.host1.app[3].source.displayStringTextFormat = "sent %p pk (%l)"
*.host1.app[3].messageLength = 14B
*.host1.app[3].sendInterval = 100us
*.host1.app[3].startTime = 2300us
*.host1.app[3].stopTime = 5700us
*.host1.app[3].display-name = "type2_3"
*.host1.app[3].destPort = 1000
                            
*.host1.app[4].typename = "UdpBasicApp"
*.host1.app[4].destAddresses = "host3"
*.host1.app[4].source.packetNameFormat = "%M-%m-%c"
*.host1.app[4].source.displayStringTextFormat = "sent %p pk (%l)"
*.host1.app[4].messageLength = 14B
*.host1.app[4].sendInterval = 100us
*.host1.app[4].startTime = 6200us
*.host1.app[4].stopTime = 6300us
*.host1.app[4].display-name = "type2_3"
*.host1.app[4].destPort = 1000
                            
*.host1.app[5].typename = "UdpBasicApp"
*.host1.app[5].destAddresses = "host3"
*.host1.app[5].source.packetNameFormat = "%M-%m-%c"
*.host1.app[5].source.displayStringTextFormat = "sent %p pk (%l)"
*.host1.app[5].messageLength = 14B
*.host1.app[5].sendInterval = 100us
*.host1.app[5].startTime = 7000us
*.host1.app[5].stopTime = 7100us
*.host1.app[5].display-name = "type2_3"
*.host1.app[5].destPort = 1000
                            
*.host1.app[6].typename = "UdpBasicApp"
*.host1.app[6].destAddresses = "host5"
*.host1.app[6].source.packetNameFormat = "%M-%m-%c"
*.host1.app[6].source.displayStringTextFormat = "sent %p pk (%l)"
*.host1.app[6].messageLength = 14B
*.host1.app[6].sendInterval = 100us
*.host1.app[6].startTime = 0us
*.host1.app[6].stopTime = 200us
*.host1.app[6].display-name = "type2_4"
*.host1.app[6].destPort = 1000
                            
*.host1.app[7].typename = "UdpBasicApp"
*.host1.app[7].destAddresses = "host5"
*.host1.app[7].source.packetNameFormat = "%M-%m-%c"
*.host1.app[7].source.displayStringTextFormat = "sent %p pk (%l)"
*.host1.app[7].messageLength = 14B
*.host1.app[7].sendInterval = 100us
*.host1.app[7].startTime = 300us
*.host1.app[7].stopTime = 400us
*.host1.app[7].display-name = "type2_4"
*.host1.app[7].destPort = 1000
                            
*.host1.app[8].typename = "UdpBasicApp"
*.host1.app[8].destAddresses = "host5"
*.host1.app[8].source.packetNameFormat = "%M-%m-%c"
*.host1.app[8].source.displayStringTextFormat = "sent %p pk (%l)"
*.host1.app[8].messageLength = 14B
*.host1.app[8].sendInterval = 100us
*.host1.app[8].startTime = 700us
*.host1.app[8].stopTime = 1400us
*.host1.app[8].display-name = "type2_4"
*.host1.app[8].destPort = 1000
                            
*.host1.app[9].typename = "UdpBasicApp"
*.host1.app[9].destAddresses = "host5"
*.host1.app[9].source.packetNameFormat = "%M-%m-%c"
*.host1.app[9].source.displayStringTextFormat = "sent %p pk (%l)"
*.host1.app[9].messageLength = 14B
*.host1.app[9].sendInterval = 100us
*.host1.app[9].startTime = 1500us
*.host1.app[9].stopTime = 1600us
*.host1.app[9].display-name = "type2_4"
*.host1.app[9].destPort = 1000
                            
*.host1.app[10].typename = "UdpBasicApp"
*.host1.app[10].destAddresses = "host5"
*.host1.app[10].source.packetNameFormat = "%M-%m-%c"
*.host1.app[10].source.displayStringTextFormat = "sent %p pk (%l)"
*.host1.app[10].messageLength = 14B
*.host1.app[10].sendInterval = 100us
*.host1.app[10].startTime = 1900us
*.host1.app[10].stopTime = 2200us
*.host1.app[10].display-name = "type2_4"
*.host1.app[10].destPort = 1000
                            
*.host1.app[11].typename = "UdpBasicApp"
*.host1.app[11].destAddresses = "host5"
*.host1.app[11].source.packetNameFormat = "%M-%m-%c"
*.host1.app[11].source.displayStringTextFormat = "sent %p pk (%l)"
*.host1.app[11].messageLength = 14B
*.host1.app[11].sendInterval = 100us
*.host1.app[11].startTime = 2300us
*.host1.app[11].stopTime = 2400us
*.host1.app[11].display-name = "type2_4"
*.host1.app[11].destPort = 1000
                            
*.host1.app[12].typename = "UdpBasicApp"
*.host1.app[12].destAddresses = "host5"
*.host1.app[12].source.packetNameFormat = "%M-%m-%c"
*.host1.app[12].source.displayStringTextFormat = "sent %p pk (%l)"
*.host1.app[12].messageLength = 14B
*.host1.app[12].sendInterval = 100us
*.host1.app[12].startTime = 2500us
*.host1.app[12].stopTime = 3500us
*.host1.app[12].display-name = "type2_4"
*.host1.app[12].destPort = 1000
                            
*.host1.app[13].typename = "UdpBasicApp"
*.host1.app[13].destAddresses = "host5"
*.host1.app[13].source.packetNameFormat = "%M-%m-%c"
*.host1.app[13].source.displayStringTextFormat = "sent %p pk (%l)"
*.host1.app[13].messageLength = 14B
*.host1.app[13].sendInterval = 100us
*.host1.app[13].startTime = 3600us
*.host1.app[13].stopTime = 3900us
*.host1.app[13].display-name = "type2_4"
*.host1.app[13].destPort = 1000
                            
*.host1.app[14].typename = "UdpBasicApp"
*.host1.app[14].destAddresses = "host5"
*.host1.app[14].source.packetNameFormat = "%M-%m-%c"
*.host1.app[14].source.displayStringTextFormat = "sent %p pk (%l)"
*.host1.app[14].messageLength = 14B
*.host1.app[14].sendInterval = 100us
*.host1.app[14].startTime = 4000us
*.host1.app[14].stopTime = 4100us
*.host1.app[14].display-name = "type2_4"
*.host1.app[14].destPort = 1000
                            
*.host1.app[15].typename = "UdpBasicApp"
*.host1.app[15].destAddresses = "host5"
*.host1.app[15].source.packetNameFormat = "%M-%m-%c"
*.host1.app[15].source.displayStringTextFormat = "sent %p pk (%l)"
*.host1.app[15].messageLength = 14B
*.host1.app[15].sendInterval = 100us
*.host1.app[15].startTime = 4300us
*.host1.app[15].stopTime = 4900us
*.host1.app[15].display-name = "type2_4"
*.host1.app[15].destPort = 1000
                            
*.host1.app[16].typename = "UdpBasicApp"
*.host1.app[16].destAddresses = "host5"
*.host1.app[16].source.packetNameFormat = "%M-%m-%c"
*.host1.app[16].source.displayStringTextFormat = "sent %p pk (%l)"
*.host1.app[16].messageLength = 14B
*.host1.app[16].sendInterval = 100us
*.host1.app[16].startTime = 5000us
*.host1.app[16].stopTime = 5100us
*.host1.app[16].display-name = "type2_4"
*.host1.app[16].destPort = 1000
                            
*.host1.app[17].typename = "UdpBasicApp"
*.host1.app[17].destAddresses = "host5"
*.host1.app[17].source.packetNameFormat = "%M-%m-%c"
*.host1.app[17].source.displayStringTextFormat = "sent %p pk (%l)"
*.host1.app[17].messageLength = 14B
*.host1.app[17].sendInterval = 100us
*.host1.app[17].startTime = 5200us
*.host1.app[17].stopTime = 5300us
*.host1.app[17].display-name = "type2_4"
*.host1.app[17].destPort = 1000
                            
*.host1.app[18].typename = "UdpBasicApp"
*.host1.app[18].destAddresses = "host5"
*.host1.app[18].source.packetNameFormat = "%M-%m-%c"
*.host1.app[18].source.displayStringTextFormat = "sent %p pk (%l)"
*.host1.app[18].messageLength = 14B
*.host1.app[18].sendInterval = 100us
*.host1.app[18].startTime = 5500us
*.host1.app[18].stopTime = 5800us
*.host1.app[18].display-name = "type2_4"
*.host1.app[18].destPort = 1000
                            
*.host1.app[19].typename = "UdpBasicApp"
*.host1.app[19].destAddresses = "host5"
*.host1.app[19].source.packetNameFormat = "%M-%m-%c"
*.host1.app[19].source.displayStringTextFormat = "sent %p pk (%l)"
*.host1.app[19].messageLength = 14B
*.host1.app[19].sendInterval = 100us
*.host1.app[19].startTime = 6000us
*.host1.app[19].stopTime = 6100us
*.host1.app[19].display-name = "type2_4"
*.host1.app[19].destPort = 1000
                            
*.host1.app[20].typename = "UdpBasicApp"
*.host1.app[20].destAddresses = "host5"
*.host1.app[20].source.packetNameFormat = "%M-%m-%c"
*.host1.app[20].source.displayStringTextFormat = "sent %p pk (%l)"
*.host1.app[20].messageLength = 14B
*.host1.app[20].sendInterval = 100us
*.host1.app[20].startTime = 6200us
*.host1.app[20].stopTime = 6700us
*.host1.app[20].display-name = "type2_4"
*.host1.app[20].destPort = 1000
                            
*.host1.app[21].typename = "UdpBasicApp"
*.host1.app[21].destAddresses = "host5"
*.host1.app[21].source.packetNameFormat = "%M-%m-%c"
*.host1.app[21].source.displayStringTextFormat = "sent %p pk (%l)"
*.host1.app[21].messageLength = 14B
*.host1.app[21].sendInterval = 100us
*.host1.app[21].startTime = 6800us
*.host1.app[21].stopTime = 7100us
*.host1.app[21].display-name = "type2_4"
*.host1.app[21].destPort = 1000
                            
*.host1.app[22].typename = "UdpBasicApp"
*.host1.app[22].destAddresses = "host5"
*.host1.app[22].source.packetNameFormat = "%M-%m-%c"
*.host1.app[22].source.displayStringTextFormat = "sent %p pk (%l)"
*.host1.app[22].messageLength = 14B
*.host1.app[22].sendInterval = 100us
*.host1.app[22].startTime = 7200us
*.host1.app[22].stopTime = 7300us
*.host1.app[22].display-name = "type2_4"
*.host1.app[22].destPort = 1000
                            
*.host1.app[23].typename = "UdpBasicApp"
*.host1.app[23].destAddresses = "host5"
*.host1.app[23].source.packetNameFormat = "%M-%m-%c"
*.host1.app[23].source.displayStringTextFormat = "sent %p pk (%l)"
*.host1.app[23].messageLength = 14B
*.host1.app[23].sendInterval = 100us
*.host1.app[23].startTime = 7500us
*.host1.app[23].stopTime = 7600us
*.host1.app[23].display-name = "type2_4"
*.host1.app[23].destPort = 1000
                            
*.host1.app[24].typename = "UdpBasicApp"
*.host1.app[24].destAddresses = "host5"
*.host1.app[24].source.packetNameFormat = "%M-%m-%c"
*.host1.app[24].source.displayStringTextFormat = "sent %p pk (%l)"
*.host1.app[24].messageLength = 14B
*.host1.app[24].sendInterval = 100us
*.host1.app[24].startTime = 7700us
*.host1.app[24].stopTime = 8000us
*.host1.app[24].display-name = "type2_4"
*.host1.app[24].destPort = 1000
                            