
[General]
network = TSN_multipath
sim-time-limit = 10ms

# disable automatic MAC forwarding table configuration
*.macForwardingTableConfigurator.typename = ""

# enable frame replication and elimination
*.*.hasStreamRedundancy = true

# enable stream policing in layer 2
*.*.bridging.streamRelay.typename = "StreamRelayLayer"
*.*.bridging.streamCoder.typename = "StreamCoderLayer"

# enable automatic stream redundancy configurator
*.streamRedundancyConfigurator.typename = "StreamRedundancyConfigurator"

*.host0.eth[0].bitrate = 100Mbps
*.switch0.eth[0].bitrate = 100Mbps
*.switch0.eth[1].bitrate = 200Mbps
*.switch0.eth[2].bitrate = 230Mbps
*.switch0.eth[3].bitrate = 140Mbps
*.switch0.eth[4].bitrate = 200Mbps
*.switch0.eth[5].bitrate = 140Mbps
*.switch0.eth[6].bitrate = 190Mbps
*.switch0.eth[7].bitrate = 210Mbps
*.switch0.eth[8].bitrate = 190Mbps
*.switch0.eth[9].bitrate = 210Mbps
*.switch0.eth[10].bitrate = 140Mbps
*.switch0.eth[11].bitrate = 180Mbps
*.switch0.eth[12].bitrate = 140Mbps
*.switch0.eth[13].bitrate = 200Mbps
*.switch0.eth[14].bitrate = 170Mbps
*.host1.eth[0].bitrate = 100Mbps
*.switch1.eth[0].bitrate = 100Mbps
*.switch1.eth[1].bitrate = 210Mbps
*.switch1.eth[2].bitrate = 150Mbps
*.switch1.eth[3].bitrate = 150Mbps
*.switch1.eth[4].bitrate = 140Mbps
*.switch1.eth[5].bitrate = 190Mbps
*.switch1.eth[6].bitrate = 230Mbps
*.switch1.eth[7].bitrate = 190Mbps
*.switch1.eth[8].bitrate = 210Mbps
*.switch1.eth[9].bitrate = 140Mbps
*.switch1.eth[10].bitrate = 120Mbps
*.switch1.eth[11].bitrate = 190Mbps
*.switch1.eth[12].bitrate = 210Mbps
*.switch1.eth[13].bitrate = 150Mbps
*.switch1.eth[14].bitrate = 240Mbps
*.switch1.eth[15].bitrate = 180Mbps
*.switch1.eth[16].bitrate = 160Mbps
*.host2.eth[0].bitrate = 100Mbps
*.switch2.eth[0].bitrate = 100Mbps
*.switch2.eth[1].bitrate = 200Mbps
*.switch2.eth[2].bitrate = 150Mbps
*.switch2.eth[3].bitrate = 190Mbps
*.switch2.eth[4].bitrate = 190Mbps
*.switch2.eth[5].bitrate = 220Mbps
*.switch2.eth[6].bitrate = 230Mbps
*.switch2.eth[7].bitrate = 170Mbps
*.switch2.eth[8].bitrate = 170Mbps
*.switch2.eth[9].bitrate = 120Mbps
*.switch2.eth[10].bitrate = 240Mbps
*.switch2.eth[11].bitrate = 130Mbps
*.host3.eth[0].bitrate = 100Mbps
*.switch3.eth[0].bitrate = 100Mbps
*.switch3.eth[1].bitrate = 210Mbps
*.switch3.eth[2].bitrate = 170Mbps
*.switch3.eth[3].bitrate = 180Mbps
*.switch3.eth[4].bitrate = 170Mbps
*.switch3.eth[5].bitrate = 170Mbps
*.switch3.eth[6].bitrate = 210Mbps
*.switch3.eth[7].bitrate = 180Mbps
*.switch3.eth[8].bitrate = 240Mbps
*.switch3.eth[9].bitrate = 240Mbps
*.switch3.eth[10].bitrate = 230Mbps
*.switch3.eth[11].bitrate = 220Mbps
*.switch3.eth[12].bitrate = 160Mbps
*.switch3.eth[13].bitrate = 180Mbps
*.switch3.eth[14].bitrate = 210Mbps
*.switch3.eth[15].bitrate = 210Mbps
*.switch3.eth[16].bitrate = 170Mbps
*.switch3.eth[17].bitrate = 180Mbps
*.switch3.eth[18].bitrate = 190Mbps
*.switch3.eth[19].bitrate = 150Mbps
*.switch3.eth[20].bitrate = 200Mbps
*.switch3.eth[21].bitrate = 130Mbps
*.switch3.eth[22].bitrate = 230Mbps
*.host4.eth[0].bitrate = 100Mbps
*.switch4.eth[0].bitrate = 100Mbps
*.switch4.eth[1].bitrate = 230Mbps
*.switch4.eth[2].bitrate = 150Mbps
*.switch4.eth[3].bitrate = 170Mbps
*.switch4.eth[4].bitrate = 180Mbps
*.switch4.eth[5].bitrate = 150Mbps
*.switch4.eth[6].bitrate = 170Mbps
*.switch4.eth[7].bitrate = 160Mbps
*.switch4.eth[8].bitrate = 200Mbps
*.switch4.eth[9].bitrate = 210Mbps
*.switch4.eth[10].bitrate = 220Mbps
*.switch4.eth[11].bitrate = 150Mbps
*.switch4.eth[12].bitrate = 160Mbps
*.host5.eth[0].bitrate = 100Mbps
*.switch5.eth[0].bitrate = 100Mbps
*.switch5.eth[1].bitrate = 140Mbps
*.switch5.eth[2].bitrate = 140Mbps
*.switch5.eth[3].bitrate = 180Mbps
*.switch5.eth[4].bitrate = 140Mbps
*.switch5.eth[5].bitrate = 210Mbps
*.switch5.eth[6].bitrate = 240Mbps
*.switch5.eth[7].bitrate = 180Mbps
*.switch5.eth[8].bitrate = 120Mbps
*.switch5.eth[9].bitrate = 130Mbps
*.switch5.eth[10].bitrate = 170Mbps
*.switch5.eth[11].bitrate = 170Mbps
*.switch5.eth[12].bitrate = 220Mbps
*.switch5.eth[13].bitrate = 190Mbps
*.switch5.eth[14].bitrate = 180Mbps
*.switch5.eth[15].bitrate = 160Mbps
*.switch5.eth[16].bitrate = 220Mbps
*.host6.eth[0].bitrate = 100Mbps
*.switch6.eth[0].bitrate = 100Mbps
*.switch6.eth[1].bitrate = 180Mbps
*.switch6.eth[2].bitrate = 240Mbps
*.switch6.eth[3].bitrate = 230Mbps
*.switch6.eth[4].bitrate = 190Mbps
*.switch6.eth[5].bitrate = 170Mbps
*.switch6.eth[6].bitrate = 220Mbps
*.switch6.eth[7].bitrate = 190Mbps
*.switch6.eth[8].bitrate = 230Mbps
*.switch6.eth[9].bitrate = 220Mbps
*.switch6.eth[10].bitrate = 180Mbps
*.switch6.eth[11].bitrate = 120Mbps
*.switch6.eth[12].bitrate = 150Mbps
*.switch6.eth[13].bitrate = 240Mbps
*.switch6.eth[14].bitrate = 240Mbps
*.switch6.eth[15].bitrate = 170Mbps
*.switch6.eth[16].bitrate = 120Mbps
*.switch6.eth[17].bitrate = 230Mbps
*.switch6.eth[18].bitrate = 170Mbps
*.switch6.eth[19].bitrate = 240Mbps
*.switch6.eth[20].bitrate = 120Mbps
*.switch6.eth[21].bitrate = 190Mbps
*.switch6.eth[22].bitrate = 150Mbps
*.switch6.eth[23].bitrate = 240Mbps
*.switch6.eth[24].bitrate = 220Mbps
*.switch6.eth[25].bitrate = 170Mbps
*.host7.eth[0].bitrate = 100Mbps
*.switch7.eth[0].bitrate = 100Mbps
*.switch7.eth[1].bitrate = 200Mbps
*.switch7.eth[2].bitrate = 170Mbps
*.switch7.eth[3].bitrate = 190Mbps
*.switch7.eth[4].bitrate = 140Mbps
*.switch7.eth[5].bitrate = 160Mbps
*.switch7.eth[6].bitrate = 190Mbps
*.switch7.eth[7].bitrate = 240Mbps
*.switch7.eth[8].bitrate = 160Mbps
*.switch7.eth[9].bitrate = 240Mbps
*.switch7.eth[10].bitrate = 220Mbps
*.switch7.eth[11].bitrate = 150Mbps
*.switch7.eth[12].bitrate = 170Mbps
*.switch7.eth[13].bitrate = 190Mbps
*.switch7.eth[14].bitrate = 160Mbps
*.switch7.eth[15].bitrate = 180Mbps
*.switch7.eth[16].bitrate = 180Mbps
*.switch7.eth[17].bitrate = 160Mbps
*.switch7.eth[18].bitrate = 200Mbps
*.switch7.eth[19].bitrate = 240Mbps
*.switch7.eth[20].bitrate = 220Mbps
*.switch7.eth[21].bitrate = 230Mbps
*.host8.eth[0].bitrate = 100Mbps
*.switch8.eth[0].bitrate = 100Mbps
*.switch8.eth[1].bitrate = 190Mbps
*.switch8.eth[2].bitrate = 170Mbps
*.switch8.eth[3].bitrate = 150Mbps
*.switch8.eth[4].bitrate = 210Mbps
*.switch8.eth[5].bitrate = 230Mbps
*.switch8.eth[6].bitrate = 160Mbps
*.switch8.eth[7].bitrate = 180Mbps
*.switch8.eth[8].bitrate = 170Mbps
*.switch8.eth[9].bitrate = 230Mbps
*.switch8.eth[10].bitrate = 180Mbps
*.switch8.eth[11].bitrate = 140Mbps
*.host9.eth[0].bitrate = 100Mbps
*.switch9.eth[0].bitrate = 100Mbps
*.switch9.eth[1].bitrate = 230Mbps
*.switch9.eth[2].bitrate = 210Mbps
*.switch9.eth[3].bitrate = 240Mbps
*.switch9.eth[4].bitrate = 220Mbps
*.switch9.eth[5].bitrate = 240Mbps
*.switch9.eth[6].bitrate = 150Mbps
*.switch9.eth[7].bitrate = 130Mbps
*.switch9.eth[8].bitrate = 220Mbps
*.switch9.eth[9].bitrate = 210Mbps
*.switch9.eth[10].bitrate = 140Mbps
*.switch9.eth[11].bitrate = 210Mbps
*.host10.eth[0].bitrate = 100Mbps
*.switch10.eth[0].bitrate = 100Mbps
*.switch10.eth[1].bitrate = 190Mbps
*.switch10.eth[2].bitrate = 180Mbps
*.switch10.eth[3].bitrate = 180Mbps
*.switch10.eth[4].bitrate = 180Mbps
*.switch10.eth[5].bitrate = 200Mbps
*.switch10.eth[6].bitrate = 120Mbps
*.switch10.eth[7].bitrate = 160Mbps
*.switch10.eth[8].bitrate = 170Mbps
*.switch10.eth[9].bitrate = 130Mbps
*.switch10.eth[10].bitrate = 140Mbps
*.switch10.eth[11].bitrate = 170Mbps
*.switch10.eth[12].bitrate = 130Mbps
*.switch10.eth[13].bitrate = 220Mbps
*.switch10.eth[14].bitrate = 160Mbps
*.host11.eth[0].bitrate = 100Mbps
*.switch11.eth[0].bitrate = 100Mbps
*.switch11.eth[1].bitrate = 240Mbps
*.switch11.eth[2].bitrate = 180Mbps
*.switch11.eth[3].bitrate = 220Mbps
*.switch11.eth[4].bitrate = 200Mbps
*.switch11.eth[5].bitrate = 170Mbps
*.switch11.eth[6].bitrate = 180Mbps
*.switch11.eth[7].bitrate = 190Mbps
*.switch11.eth[8].bitrate = 200Mbps
*.switch11.eth[9].bitrate = 130Mbps
*.switch11.eth[10].bitrate = 120Mbps
*.switch11.eth[11].bitrate = 220Mbps
*.switch11.eth[12].bitrate = 240Mbps
*.host12.eth[0].bitrate = 100Mbps
*.switch12.eth[0].bitrate = 100Mbps
*.switch12.eth[1].bitrate = 240Mbps
*.switch12.eth[2].bitrate = 120Mbps
*.switch12.eth[3].bitrate = 150Mbps
*.switch12.eth[4].bitrate = 170Mbps
*.switch12.eth[5].bitrate = 160Mbps
*.switch12.eth[6].bitrate = 200Mbps
*.switch12.eth[7].bitrate = 210Mbps
*.switch12.eth[8].bitrate = 160Mbps
*.switch12.eth[9].bitrate = 240Mbps
*.switch12.eth[10].bitrate = 230Mbps
*.switch12.eth[11].bitrate = 220Mbps
*.switch12.eth[12].bitrate = 220Mbps
*.switch12.eth[13].bitrate = 220Mbps
*.switch12.eth[14].bitrate = 130Mbps
*.switch12.eth[15].bitrate = 150Mbps
*.switch12.eth[16].bitrate = 160Mbps
*.switch12.eth[17].bitrate = 140Mbps
*.switch12.eth[18].bitrate = 190Mbps
*.switch12.eth[19].bitrate = 230Mbps
*.switch12.eth[20].bitrate = 200Mbps
*.host13.eth[0].bitrate = 100Mbps
*.switch13.eth[0].bitrate = 100Mbps
*.switch13.eth[1].bitrate = 230Mbps
*.switch13.eth[2].bitrate = 120Mbps
*.switch13.eth[3].bitrate = 150Mbps
*.switch13.eth[4].bitrate = 130Mbps
*.switch13.eth[5].bitrate = 220Mbps
*.switch13.eth[6].bitrate = 220Mbps
*.switch13.eth[7].bitrate = 180Mbps
*.switch13.eth[8].bitrate = 240Mbps
*.switch13.eth[9].bitrate = 120Mbps
*.switch13.eth[10].bitrate = 190Mbps
*.switch13.eth[11].bitrate = 140Mbps
*.switch13.eth[12].bitrate = 120Mbps
*.host14.eth[0].bitrate = 100Mbps
*.switch14.eth[0].bitrate = 100Mbps
*.switch14.eth[1].bitrate = 140Mbps
*.switch14.eth[2].bitrate = 210Mbps
*.switch14.eth[3].bitrate = 190Mbps
*.switch14.eth[4].bitrate = 220Mbps
*.switch14.eth[5].bitrate = 240Mbps
*.switch14.eth[6].bitrate = 170Mbps
*.switch14.eth[7].bitrate = 170Mbps
*.switch14.eth[8].bitrate = 150Mbps
*.switch14.eth[9].bitrate = 220Mbps
*.switch14.eth[10].bitrate = 150Mbps
*.switch14.eth[11].bitrate = 230Mbps
*.switch14.eth[12].bitrate = 210Mbps
*.switch14.eth[13].bitrate = 190Mbps
*.switch14.eth[14].bitrate = 170Mbps
*.switch14.eth[15].bitrate = 170Mbps
*.switch14.eth[16].bitrate = 140Mbps
*.switch14.eth[17].bitrate = 180Mbps
*.switch14.eth[18].bitrate = 240Mbps
*.host15.eth[0].bitrate = 100Mbps
*.switch15.eth[0].bitrate = 100Mbps
*.switch15.eth[1].bitrate = 140Mbps
*.switch15.eth[2].bitrate = 160Mbps
*.switch15.eth[3].bitrate = 240Mbps
*.switch15.eth[4].bitrate = 190Mbps
*.switch15.eth[5].bitrate = 120Mbps
*.switch15.eth[6].bitrate = 170Mbps
*.switch15.eth[7].bitrate = 120Mbps
*.switch15.eth[8].bitrate = 160Mbps
*.switch15.eth[9].bitrate = 240Mbps
*.switch15.eth[10].bitrate = 140Mbps
*.switch15.eth[11].bitrate = 230Mbps
*.switch15.eth[12].bitrate = 150Mbps
*.switch15.eth[13].bitrate = 180Mbps
*.switch15.eth[14].bitrate = 170Mbps
*.host16.eth[0].bitrate = 100Mbps
*.switch16.eth[0].bitrate = 100Mbps
*.switch16.eth[1].bitrate = 120Mbps
*.switch16.eth[2].bitrate = 220Mbps
*.switch16.eth[3].bitrate = 180Mbps
*.switch16.eth[4].bitrate = 130Mbps
*.switch16.eth[5].bitrate = 170Mbps
*.switch16.eth[6].bitrate = 160Mbps
*.switch16.eth[7].bitrate = 120Mbps
*.switch16.eth[8].bitrate = 150Mbps
*.switch16.eth[9].bitrate = 170Mbps
*.switch16.eth[10].bitrate = 150Mbps
*.switch16.eth[11].bitrate = 240Mbps
*.switch16.eth[12].bitrate = 140Mbps
*.switch16.eth[13].bitrate = 180Mbps
*.switch16.eth[14].bitrate = 150Mbps
*.switch16.eth[15].bitrate = 240Mbps
*.switch16.eth[16].bitrate = 220Mbps
*.host17.eth[0].bitrate = 100Mbps
*.switch17.eth[0].bitrate = 100Mbps
*.switch17.eth[1].bitrate = 190Mbps
*.switch17.eth[2].bitrate = 190Mbps
*.switch17.eth[3].bitrate = 210Mbps
*.switch17.eth[4].bitrate = 170Mbps
*.switch17.eth[5].bitrate = 120Mbps
*.switch17.eth[6].bitrate = 180Mbps
*.switch17.eth[7].bitrate = 140Mbps
*.switch17.eth[8].bitrate = 150Mbps
*.switch17.eth[9].bitrate = 220Mbps
*.switch17.eth[10].bitrate = 210Mbps
*.switch17.eth[11].bitrate = 200Mbps
*.switch17.eth[12].bitrate = 240Mbps
*.switch17.eth[13].bitrate = 170Mbps
*.switch17.eth[14].bitrate = 240Mbps
*.switch17.eth[15].bitrate = 180Mbps
*.switch17.eth[16].bitrate = 160Mbps
*.switch17.eth[17].bitrate = 210Mbps
*.host18.eth[0].bitrate = 100Mbps
*.switch18.eth[0].bitrate = 100Mbps
*.switch18.eth[1].bitrate = 210Mbps
*.switch18.eth[2].bitrate = 210Mbps
*.switch18.eth[3].bitrate = 170Mbps
*.switch18.eth[4].bitrate = 230Mbps
*.switch18.eth[5].bitrate = 180Mbps
*.switch18.eth[6].bitrate = 140Mbps
*.switch18.eth[7].bitrate = 160Mbps
*.switch18.eth[8].bitrate = 190Mbps
*.switch18.eth[9].bitrate = 180Mbps
*.switch18.eth[10].bitrate = 130Mbps
*.switch18.eth[11].bitrate = 130Mbps
*.switch18.eth[12].bitrate = 170Mbps
*.switch18.eth[13].bitrate = 140Mbps
*.switch18.eth[14].bitrate = 220Mbps
*.switch18.eth[15].bitrate = 230Mbps
*.host19.eth[0].bitrate = 100Mbps
*.switch19.eth[0].bitrate = 100Mbps
*.switch19.eth[1].bitrate = 150Mbps
*.switch19.eth[2].bitrate = 170Mbps
*.switch19.eth[3].bitrate = 170Mbps
*.switch19.eth[4].bitrate = 180Mbps
*.switch19.eth[5].bitrate = 170Mbps
*.switch19.eth[6].bitrate = 140Mbps
*.switch19.eth[7].bitrate = 180Mbps
*.switch19.eth[8].bitrate = 160Mbps
*.switch19.eth[9].bitrate = 230Mbps
*.switch19.eth[10].bitrate = 230Mbps
*.switch19.eth[11].bitrate = 160Mbps
*.switch19.eth[12].bitrate = 120Mbps
*.switch19.eth[13].bitrate = 210Mbps

# apps
            
*.host0.numApps = 2

*.host0.app[0].typename = "UdpSinkApp"
*.host0.app[0].io.localPort = 1000
                        
*.host0.app[1].typename = "UdpSinkApp"
*.host0.app[1].io.localPort = 1001
                        
*.host1.numApps = 23

*.host1.app[0].typename = "UdpSinkApp"
*.host1.app[0].io.localPort = 1000
                        
*.host1.app[1].typename = "UdpBasicApp"
*.host1.app[1].destAddresses = "host7"
*.host1.app[1].source.packetNameFormat = "%M-%m-%c"
*.host1.app[1].source.displayStringTextFormat = "sent %p pk (%l)"
*.host1.app[1].messageLength = 18B
*.host1.app[1].sendInterval = 100us
*.host1.app[1].startTime = 0us
*.host1.app[1].stopTime = 600us
*.host1.app[1].display-name = "type2_19"
*.host1.app[1].destPort = 1000
                            
*.host1.app[2].typename = "UdpBasicApp"
*.host1.app[2].destAddresses = "host7"
*.host1.app[2].source.packetNameFormat = "%M-%m-%c"
*.host1.app[2].source.displayStringTextFormat = "sent %p pk (%l)"
*.host1.app[2].messageLength = 18B
*.host1.app[2].sendInterval = 100us
*.host1.app[2].startTime = 700us
*.host1.app[2].stopTime = 800us
*.host1.app[2].display-name = "type2_19"
*.host1.app[2].destPort = 1000
                            
*.host1.app[3].typename = "UdpBasicApp"
*.host1.app[3].destAddresses = "host7"
*.host1.app[3].source.packetNameFormat = "%M-%m-%c"
*.host1.app[3].source.displayStringTextFormat = "sent %p pk (%l)"
*.host1.app[3].messageLength = 18B
*.host1.app[3].sendInterval = 100us
*.host1.app[3].startTime = 900us
*.host1.app[3].stopTime = 1100us
*.host1.app[3].display-name = "type2_19"
*.host1.app[3].destPort = 1000
                            
*.host1.app[4].typename = "UdpBasicApp"
*.host1.app[4].destAddresses = "host7"
*.host1.app[4].source.packetNameFormat = "%M-%m-%c"
*.host1.app[4].source.displayStringTextFormat = "sent %p pk (%l)"
*.host1.app[4].messageLength = 18B
*.host1.app[4].sendInterval = 100us
*.host1.app[4].startTime = 1200us
*.host1.app[4].stopTime = 1300us
*.host1.app[4].display-name = "type2_19"
*.host1.app[4].destPort = 1000
                            
*.host1.app[5].typename = "UdpBasicApp"
*.host1.app[5].destAddresses = "host7"
*.host1.app[5].source.packetNameFormat = "%M-%m-%c"
*.host1.app[5].source.displayStringTextFormat = "sent %p pk (%l)"
*.host1.app[5].messageLength = 18B
*.host1.app[5].sendInterval = 100us
*.host1.app[5].startTime = 1500us
*.host1.app[5].stopTime = 2700us
*.host1.app[5].display-name = "type2_19"
*.host1.app[5].destPort = 1000
                            
*.host1.app[6].typename = "UdpBasicApp"
*.host1.app[6].destAddresses = "host7"
*.host1.app[6].source.packetNameFormat = "%M-%m-%c"
*.host1.app[6].source.displayStringTextFormat = "sent %p pk (%l)"
*.host1.app[6].messageLength = 18B
*.host1.app[6].sendInterval = 100us
*.host1.app[6].startTime = 2900us
*.host1.app[6].stopTime = 3100us
*.host1.app[6].display-name = "type2_19"
*.host1.app[6].destPort = 1000
                            
*.host1.app[7].typename = "UdpBasicApp"
*.host1.app[7].destAddresses = "host7"
*.host1.app[7].source.packetNameFormat = "%M-%m-%c"
*.host1.app[7].source.displayStringTextFormat = "sent %p pk (%l)"
*.host1.app[7].messageLength = 18B
*.host1.app[7].sendInterval = 100us
*.host1.app[7].startTime = 3200us
*.host1.app[7].stopTime = 3500us
*.host1.app[7].display-name = "type2_19"
*.host1.app[7].destPort = 1000
                            
*.host1.app[8].typename = "UdpBasicApp"
*.host1.app[8].destAddresses = "host7"
*.host1.app[8].source.packetNameFormat = "%M-%m-%c"
*.host1.app[8].source.displayStringTextFormat = "sent %p pk (%l)"
*.host1.app[8].messageLength = 18B
*.host1.app[8].sendInterval = 100us
*.host1.app[8].startTime = 3600us
*.host1.app[8].stopTime = 3700us
*.host1.app[8].display-name = "type2_19"
*.host1.app[8].destPort = 1000
                            
*.host1.app[9].typename = "UdpBasicApp"
*.host1.app[9].destAddresses = "host7"
*.host1.app[9].source.packetNameFormat = "%M-%m-%c"
*.host1.app[9].source.displayStringTextFormat = "sent %p pk (%l)"
*.host1.app[9].messageLength = 18B
*.host1.app[9].sendInterval = 100us
*.host1.app[9].startTime = 4000us
*.host1.app[9].stopTime = 4400us
*.host1.app[9].display-name = "type2_19"
*.host1.app[9].destPort = 1000
                            
*.host1.app[10].typename = "UdpBasicApp"
*.host1.app[10].destAddresses = "host7"
*.host1.app[10].source.packetNameFormat = "%M-%m-%c"
*.host1.app[10].source.displayStringTextFormat = "sent %p pk (%l)"
*.host1.app[10].messageLength = 18B
*.host1.app[10].sendInterval = 100us
*.host1.app[10].startTime = 4800us
*.host1.app[10].stopTime = 5100us
*.host1.app[10].display-name = "type2_19"
*.host1.app[10].destPort = 1000
                            
*.host1.app[11].typename = "UdpBasicApp"
*.host1.app[11].destAddresses = "host7"
*.host1.app[11].source.packetNameFormat = "%M-%m-%c"
*.host1.app[11].source.displayStringTextFormat = "sent %p pk (%l)"
*.host1.app[11].messageLength = 18B
*.host1.app[11].sendInterval = 100us
*.host1.app[11].startTime = 5200us
*.host1.app[11].stopTime = 5300us
*.host1.app[11].display-name = "type2_19"
*.host1.app[11].destPort = 1000
                            
*.host1.app[12].typename = "UdpBasicApp"
*.host1.app[12].destAddresses = "host7"
*.host1.app[12].source.packetNameFormat = "%M-%m-%c"
*.host1.app[12].source.displayStringTextFormat = "sent %p pk (%l)"
*.host1.app[12].messageLength = 18B
*.host1.app[12].sendInterval = 100us
*.host1.app[12].startTime = 5400us
*.host1.app[12].stopTime = 5700us
*.host1.app[12].display-name = "type2_19"
*.host1.app[12].destPort = 1000
                            
*.host1.app[13].typename = "UdpBasicApp"
*.host1.app[13].destAddresses = "host7"
*.host1.app[13].source.packetNameFormat = "%M-%m-%c"
*.host1.app[13].source.displayStringTextFormat = "sent %p pk (%l)"
*.host1.app[13].messageLength = 18B
*.host1.app[13].sendInterval = 100us
*.host1.app[13].startTime = 5900us
*.host1.app[13].stopTime = 6100us
*.host1.app[13].display-name = "type2_19"
*.host1.app[13].destPort = 1000
                            
*.host1.app[14].typename = "UdpBasicApp"
*.host1.app[14].destAddresses = "host7"
*.host1.app[14].source.packetNameFormat = "%M-%m-%c"
*.host1.app[14].source.displayStringTextFormat = "sent %p pk (%l)"
*.host1.app[14].messageLength = 18B
*.host1.app[14].sendInterval = 100us
*.host1.app[14].startTime = 6300us
*.host1.app[14].stopTime = 6600us
*.host1.app[14].display-name = "type2_19"
*.host1.app[14].destPort = 1000
                            
*.host1.app[15].typename = "UdpBasicApp"
*.host1.app[15].destAddresses = "host7"
*.host1.app[15].source.packetNameFormat = "%M-%m-%c"
*.host1.app[15].source.displayStringTextFormat = "sent %p pk (%l)"
*.host1.app[15].messageLength = 18B
*.host1.app[15].sendInterval = 100us
*.host1.app[15].startTime = 6800us
*.host1.app[15].stopTime = 6900us
*.host1.app[15].display-name = "type2_19"
*.host1.app[15].destPort = 1000
                            
*.host1.app[16].typename = "UdpBasicApp"
*.host1.app[16].destAddresses = "host7"
*.host1.app[16].source.packetNameFormat = "%M-%m-%c"
*.host1.app[16].source.displayStringTextFormat = "sent %p pk (%l)"
*.host1.app[16].messageLength = 18B
*.host1.app[16].sendInterval = 100us
*.host1.app[16].startTime = 7100us
*.host1.app[16].stopTime = 7200us
*.host1.app[16].display-name = "type2_19"
*.host1.app[16].destPort = 1000
                            
*.host1.app[17].typename = "UdpBasicApp"
*.host1.app[17].destAddresses = "host7"
*.host1.app[17].source.packetNameFormat = "%M-%m-%c"
*.host1.app[17].source.displayStringTextFormat = "sent %p pk (%l)"
*.host1.app[17].messageLength = 18B
*.host1.app[17].sendInterval = 100us
*.host1.app[17].startTime = 7300us
*.host1.app[17].stopTime = 7600us
*.host1.app[17].display-name = "type2_19"
*.host1.app[17].destPort = 1000
                            
*.host1.app[18].typename = "UdpBasicApp"
*.host1.app[18].destAddresses = "host7"
*.host1.app[18].source.packetNameFormat = "%M-%m-%c"
*.host1.app[18].source.displayStringTextFormat = "sent %p pk (%l)"
*.host1.app[18].messageLength = 18B
*.host1.app[18].sendInterval = 100us
*.host1.app[18].startTime = 7700us
*.host1.app[18].stopTime = 7800us
*.host1.app[18].display-name = "type2_19"
*.host1.app[18].destPort = 1000
                            
*.host1.app[19].typename = "UdpBasicApp"
*.host1.app[19].destAddresses = "host7"
*.host1.app[19].source.packetNameFormat = "%M-%m-%c"
*.host1.app[19].source.displayStringTextFormat = "sent %p pk (%l)"
*.host1.app[19].messageLength = 18B
*.host1.app[19].sendInterval = 100us
*.host1.app[19].startTime = 8000us
*.host1.app[19].stopTime = 8100us
*.host1.app[19].display-name = "type2_19"
*.host1.app[19].destPort = 1000
                            
*.host1.app[20].typename = "UdpBasicApp"
*.host1.app[20].destAddresses = "host7"
*.host1.app[20].source.packetNameFormat = "%M-%m-%c"
*.host1.app[20].source.displayStringTextFormat = "sent %p pk (%l)"
*.host1.app[20].messageLength = 18B
*.host1.app[20].sendInterval = 100us
*.host1.app[20].startTime = 8200us
*.host1.app[20].stopTime = 8500us
*.host1.app[20].display-name = "type2_19"
*.host1.app[20].destPort = 1000
                            
*.host1.app[21].typename = "UdpBasicApp"
*.host1.app[21].destAddresses = "host7"
*.host1.app[21].source.packetNameFormat = "%M-%m-%c"
*.host1.app[21].source.displayStringTextFormat = "sent %p pk (%l)"
*.host1.app[21].messageLength = 18B
*.host1.app[21].sendInterval = 100us
*.host1.app[21].startTime = 8600us
*.host1.app[21].stopTime = 9000us
*.host1.app[21].display-name = "type2_19"
*.host1.app[21].destPort = 1000
                            
*.host1.app[22].typename = "UdpBasicApp"
*.host1.app[22].destAddresses = "host7"
*.host1.app[22].source.packetNameFormat = "%M-%m-%c"
*.host1.app[22].source.displayStringTextFormat = "sent %p pk (%l)"
*.host1.app[22].messageLength = 18B
*.host1.app[22].sendInterval = 100us
*.host1.app[22].startTime = 9600us
*.host1.app[22].stopTime = 9900us
*.host1.app[22].display-name = "type2_19"
*.host1.app[22].destPort = 1000
                            
*.host2.numApps = 2

*.host2.app[0].typename = "UdpSinkApp"
*.host2.app[0].io.localPort = 1000
                        
*.host2.app[1].typename = "UdpSinkApp"
*.host2.app[1].io.localPort = 1001
                        
*.host3.numApps = 25

*.host3.app[0].typename = "UdpSourceApp"
*.host3.app[0].io.destAddress = "host19"
*.host3.app[0].source.packetNameFormat = "%M-%m-%c"
*.host3.app[0].source.displayStringTextFormat = "sent %p pk (%l)"
*.host3.app[0].source.packetLength = 16B
*.host3.app[0].source.productionInterval = 100us
*.host3.app[0].display-name = "type1_0"
*.host3.app[0].io.destPort = 1000
                            
*.host3.app[1].typename = "UdpSinkApp"
*.host3.app[1].io.localPort = 1000
                        
*.host3.app[2].typename = "UdpSinkApp"
*.host3.app[2].io.localPort = 1001
                        
*.host3.app[3].typename = "UdpSinkApp"
*.host3.app[3].io.localPort = 1002
                        
*.host3.app[4].typename = "UdpBasicApp"
*.host3.app[4].destAddresses = "host5"
*.host3.app[4].source.packetNameFormat = "%M-%m-%c"
*.host3.app[4].source.displayStringTextFormat = "sent %p pk (%l)"
*.host3.app[4].messageLength = 12B
*.host3.app[4].sendInterval = 100us
*.host3.app[4].startTime = 700us
*.host3.app[4].stopTime = 900us
*.host3.app[4].display-name = "type2_8"
*.host3.app[4].destPort = 1000
                            
*.host3.app[5].typename = "UdpBasicApp"
*.host3.app[5].destAddresses = "host5"
*.host3.app[5].source.packetNameFormat = "%M-%m-%c"
*.host3.app[5].source.displayStringTextFormat = "sent %p pk (%l)"
*.host3.app[5].messageLength = 12B
*.host3.app[5].sendInterval = 100us
*.host3.app[5].startTime = 1200us
*.host3.app[5].stopTime = 1300us
*.host3.app[5].display-name = "type2_8"
*.host3.app[5].destPort = 1000
                            
*.host3.app[6].typename = "UdpBasicApp"
*.host3.app[6].destAddresses = "host5"
*.host3.app[6].source.packetNameFormat = "%M-%m-%c"
*.host3.app[6].source.displayStringTextFormat = "sent %p pk (%l)"
*.host3.app[6].messageLength = 12B
*.host3.app[6].sendInterval = 100us
*.host3.app[6].startTime = 1400us
*.host3.app[6].stopTime = 1600us
*.host3.app[6].display-name = "type2_8"
*.host3.app[6].destPort = 1000
                            
*.host3.app[7].typename = "UdpBasicApp"
*.host3.app[7].destAddresses = "host5"
*.host3.app[7].source.packetNameFormat = "%M-%m-%c"
*.host3.app[7].source.displayStringTextFormat = "sent %p pk (%l)"
*.host3.app[7].messageLength = 12B
*.host3.app[7].sendInterval = 100us
*.host3.app[7].startTime = 2000us
*.host3.app[7].stopTime = 2400us
*.host3.app[7].display-name = "type2_8"
*.host3.app[7].destPort = 1000
                            
*.host3.app[8].typename = "UdpBasicApp"
*.host3.app[8].destAddresses = "host5"
*.host3.app[8].source.packetNameFormat = "%M-%m-%c"
*.host3.app[8].source.displayStringTextFormat = "sent %p pk (%l)"
*.host3.app[8].messageLength = 12B
*.host3.app[8].sendInterval = 100us
*.host3.app[8].startTime = 2600us
*.host3.app[8].stopTime = 2800us
*.host3.app[8].display-name = "type2_8"
*.host3.app[8].destPort = 1000
                            
*.host3.app[9].typename = "UdpBasicApp"
*.host3.app[9].destAddresses = "host5"
*.host3.app[9].source.packetNameFormat = "%M-%m-%c"
*.host3.app[9].source.displayStringTextFormat = "sent %p pk (%l)"
*.host3.app[9].messageLength = 12B
*.host3.app[9].sendInterval = 100us
*.host3.app[9].startTime = 2900us
*.host3.app[9].stopTime = 3200us
*.host3.app[9].display-name = "type2_8"
*.host3.app[9].destPort = 1000
                            
*.host3.app[10].typename = "UdpBasicApp"
*.host3.app[10].destAddresses = "host5"
*.host3.app[10].source.packetNameFormat = "%M-%m-%c"
*.host3.app[10].source.displayStringTextFormat = "sent %p pk (%l)"
*.host3.app[10].messageLength = 12B
*.host3.app[10].sendInterval = 100us
*.host3.app[10].startTime = 3400us
*.host3.app[10].stopTime = 3700us
*.host3.app[10].display-name = "type2_8"
*.host3.app[10].destPort = 1000
                            
*.host3.app[11].typename = "UdpBasicApp"
*.host3.app[11].destAddresses = "host5"
*.host3.app[11].source.packetNameFormat = "%M-%m-%c"
*.host3.app[11].source.displayStringTextFormat = "sent %p pk (%l)"
*.host3.app[11].messageLength = 12B
*.host3.app[11].sendInterval = 100us
*.host3.app[11].startTime = 3900us
*.host3.app[11].stopTime = 4000us
*.host3.app[11].display-name = "type2_8"
*.host3.app[11].destPort = 1000
                            
*.host3.app[12].typename = "UdpBasicApp"
*.host3.app[12].destAddresses = "host5"
*.host3.app[12].source.packetNameFormat = "%M-%m-%c"
*.host3.app[12].source.displayStringTextFormat = "sent %p pk (%l)"
*.host3.app[12].messageLength = 12B
*.host3.app[12].sendInterval = 100us
*.host3.app[12].startTime = 4300us
*.host3.app[12].stopTime = 4400us
*.host3.app[12].display-name = "type2_8"
*.host3.app[12].destPort = 1000
                            
*.host3.app[13].typename = "UdpBasicApp"
*.host3.app[13].destAddresses = "host5"
*.host3.app[13].source.packetNameFormat = "%M-%m-%c"
*.host3.app[13].source.displayStringTextFormat = "sent %p pk (%l)"
*.host3.app[13].messageLength = 12B
*.host3.app[13].sendInterval = 100us
*.host3.app[13].startTime = 4600us
*.host3.app[13].stopTime = 4700us
*.host3.app[13].display-name = "type2_8"
*.host3.app[13].destPort = 1000
                            
*.host3.app[14].typename = "UdpBasicApp"
*.host3.app[14].destAddresses = "host5"
*.host3.app[14].source.packetNameFormat = "%M-%m-%c"
*.host3.app[14].source.displayStringTextFormat = "sent %p pk (%l)"
*.host3.app[14].messageLength = 12B
*.host3.app[14].sendInterval = 100us
*.host3.app[14].startTime = 4800us
*.host3.app[14].stopTime = 5400us
*.host3.app[14].display-name = "type2_8"
*.host3.app[14].destPort = 1000
                            
*.host3.app[15].typename = "UdpBasicApp"
*.host3.app[15].destAddresses = "host5"
*.host3.app[15].source.packetNameFormat = "%M-%m-%c"
*.host3.app[15].source.displayStringTextFormat = "sent %p pk (%l)"
*.host3.app[15].messageLength = 12B
*.host3.app[15].sendInterval = 100us
*.host3.app[15].startTime = 5700us
*.host3.app[15].stopTime = 5800us
*.host3.app[15].display-name = "type2_8"
*.host3.app[15].destPort = 1000
                            
*.host3.app[16].typename = "UdpBasicApp"
*.host3.app[16].destAddresses = "host5"
*.host3.app[16].source.packetNameFormat = "%M-%m-%c"
*.host3.app[16].source.displayStringTextFormat = "sent %p pk (%l)"
*.host3.app[16].messageLength = 12B
*.host3.app[16].sendInterval = 100us
*.host3.app[16].startTime = 6000us
*.host3.app[16].stopTime = 6200us
*.host3.app[16].display-name = "type2_8"
*.host3.app[16].destPort = 1000
                            
*.host3.app[17].typename = "UdpBasicApp"
*.host3.app[17].destAddresses = "host5"
*.host3.app[17].source.packetNameFormat = "%M-%m-%c"
*.host3.app[17].source.displayStringTextFormat = "sent %p pk (%l)"
*.host3.app[17].messageLength = 12B