
[General]
network = TSN_multipath
sim-time-limit = 10ms

# disable automatic MAC forwarding table configuration
*.macForwardingTableConfigurator.typename = ""

# enable frame replication and elimination
*.*.hasStreamRedundancy = true

# enable stream policing in layer 2
*.*.bridging.streamRelay.typename = "StreamRelayLayer"
*.*.bridging.streamCoder.typename = "StreamCoderLayer"

# enable automatic stream redundancy configurator
*.streamRedundancyConfigurator.typename = "StreamRedundancyConfigurator"

*.host0.eth[0].bitrate = 100Mbps
*.switch0.eth[0].bitrate = 100Mbps
*.switch0.eth[1].bitrate = 200Mbps
*.switch0.eth[2].bitrate = 230Mbps
*.switch0.eth[3].bitrate = 140Mbps
*.switch0.eth[4].bitrate = 200Mbps
*.switch0.eth[5].bitrate = 140Mbps
*.switch0.eth[6].bitrate = 190Mbps
*.switch0.eth[7].bitrate = 210Mbps
*.switch0.eth[8].bitrate = 190Mbps
*.switch0.eth[9].bitrate = 210Mbps
*.switch0.eth[10].bitrate = 140Mbps
*.switch0.eth[11].bitrate = 180Mbps
*.switch0.eth[12].bitrate = 140Mbps
*.switch0.eth[13].bitrate = 200Mbps
*.switch0.eth[14].bitrate = 170Mbps
*.host1.eth[0].bitrate = 100Mbps
*.switch1.eth[0].bitrate = 100Mbps
*.switch1.eth[1].bitrate = 210Mbps
*.switch1.eth[2].bitrate = 150Mbps
*.switch1.eth[3].bitrate = 150Mbps
*.switch1.eth[4].bitrate = 140Mbps
*.switch1.eth[5].bitrate = 190Mbps
*.switch1.eth[6].bitrate = 230Mbps
*.switch1.eth[7].bitrate = 190Mbps
*.switch1.eth[8].bitrate = 210Mbps
*.switch1.eth[9].bitrate = 140Mbps
*.switch1.eth[10].bitrate = 120Mbps
*.switch1.eth[11].bitrate = 190Mbps
*.switch1.eth[12].bitrate = 210Mbps
*.switch1.eth[13].bitrate = 150Mbps
*.switch1.eth[14].bitrate = 240Mbps
*.switch1.eth[15].bitrate = 180Mbps
*.switch1.eth[16].bitrate = 160Mbps
*.host2.eth[0].bitrate = 100Mbps
*.switch2.eth[0].bitrate = 100Mbps
*.switch2.eth[1].bitrate = 200Mbps
*.switch2.eth[2].bitrate = 150Mbps
*.switch2.eth[3].bitrate = 190Mbps
*.switch2.eth[4].bitrate = 190Mbps
*.switch2.eth[5].bitrate = 220Mbps
*.switch2.eth[6].bitrate = 230Mbps
*.switch2.eth[7].bitrate = 170Mbps
*.switch2.eth[8].bitrate = 170Mbps
*.switch2.eth[9].bitrate = 120Mbps
*.switch2.eth[10].bitrate = 240Mbps
*.switch2.eth[11].bitrate = 130Mbps
*.host3.eth[0].bitrate = 100Mbps
*.switch3.eth[0].bitrate = 100Mbps
*.switch3.eth[1].bitrate = 210Mbps
*.switch3.eth[2].bitrate = 170Mbps
*.switch3.eth[3].bitrate = 180Mbps
*.switch3.eth[4].bitrate = 170Mbps
*.switch3.eth[5].bitrate = 170Mbps
*.switch3.eth[6].bitrate = 210Mbps
*.switch3.eth[7].bitrate = 180Mbps
*.switch3.eth[8].bitrate = 240Mbps
*.switch3.eth[9].bitrate = 240Mbps
*.switch3.eth[10].bitrate = 230Mbps
*.switch3.eth[11].bitrate = 220Mbps
*.switch3.eth[12].bitrate = 160Mbps
*.switch3.eth[13].bitrate = 180Mbps
*.switch3.eth[14].bitrate = 210Mbps
*.switch3.eth[15].bitrate = 210Mbps
*.switch3.eth[16].bitrate = 170Mbps
*.switch3.eth[17].bitrate = 180Mbps
*.switch3.eth[18].bitrate = 190Mbps
*.switch3.eth[19].bitrate = 150Mbps
*.switch3.eth[20].bitrate = 200Mbps
*.switch3.eth[21].bitrate = 130Mbps
*.switch3.eth[22].bitrate = 230Mbps
*.host4.eth[0].bitrate = 100Mbps
*.switch4.eth[0].bitrate = 100Mbps
*.switch4.eth[1].bitrate = 230Mbps
*.switch4.eth[2].bitrate = 150Mbps
*.switch4.eth[3].bitrate = 170Mbps
*.switch4.eth[4].bitrate = 180Mbps
*.switch4.eth[5].bitrate = 150Mbps
*.switch4.eth[6].bitrate = 170Mbps
*.switch4.eth[7].bitrate = 160Mbps
*.switch4.eth[8].bitrate = 200Mbps
*.switch4.eth[9].bitrate = 210Mbps
*.switch4.eth[10].bitrate = 220Mbps
*.switch4.eth[11].bitrate = 150Mbps
*.switch4.eth[12].bitrate = 160Mbps
*.host5.eth[0].bitrate = 100Mbps
*.switch5.eth[0].bitrate = 100Mbps
*.switch5.eth[1].bitrate = 140Mbps
*.switch5.eth[2].bitrate = 140Mbps
*.switch5.eth[3].bitrate = 180Mbps
*.switch5.eth[4].bitrate = 140Mbps
*.switch5.eth[5].bitrate = 210Mbps
*.switch5.eth[6].bitrate = 240Mbps
*.switch5.eth[7].bitrate = 180Mbps
*.switch5.eth[8].bitrate = 120Mbps
*.switch5.eth[9].bitrate = 130Mbps
*.switch5.eth[10].bitrate = 170Mbps
*.switch5.eth[11].bitrate = 170Mbps
*.switch5.eth[12].bitrate = 220Mbps
*.switch5.eth[13].bitrate = 190Mbps
*.switch5.eth[14].bitrate = 180Mbps
*.switch5.eth[15].bitrate = 160Mbps
*.switch5.eth[16].bitrate = 220Mbps
*.host6.eth[0].bitrate = 100Mbps
*.switch6.eth[0].bitrate = 100Mbps
*.switch6.eth[1].bitrate = 180Mbps
*.switch6.eth[2].bitrate = 240Mbps
*.switch6.eth[3].bitrate = 230Mbps
*.switch6.eth[4].bitrate = 190Mbps
*.switch6.eth[5].bitrate = 170Mbps
*.switch6.eth[6].bitrate = 220Mbps
*.switch6.eth[7].bitrate = 190Mbps
*.switch6.eth[8].bitrate = 230Mbps
*.switch6.eth[9].bitrate = 220Mbps
*.switch6.eth[10].bitrate = 180Mbps
*.switch6.eth[11].bitrate = 120Mbps
*.switch6.eth[12].bitrate = 150Mbps
*.switch6.eth[13].bitrate = 240Mbps
*.switch6.eth[14].bitrate = 240Mbps
*.switch6.eth[15].bitrate = 170Mbps
*.switch6.eth[16].bitrate = 120Mbps
*.switch6.eth[17].bitrate = 230Mbps
*.switch6.eth[18].bitrate = 170Mbps
*.switch6.eth[19].bitrate = 240Mbps
*.switch6.eth[20].bitrate = 120Mbps
*.switch6.eth[21].bitrate = 190Mbps
*.switch6.eth[22].bitrate = 150Mbps
*.switch6.eth[23].bitrate = 240Mbps
*.switch6.eth[24].bitrate = 220Mbps
*.switch6.eth[25].bitrate = 170Mbps
*.host7.eth[0].bitrate = 100Mbps
*.switch7.eth[0].bitrate = 100Mbps
*.switch7.eth[1].bitrate = 200Mbps
*.switch7.eth[2].bitrate = 170Mbps
*.switch7.eth[3].bitrate = 190Mbps
*.switch7.eth[4].bitrate = 140Mbps
*.switch7.eth[5].bitrate = 160Mbps
*.switch7.eth[6].bitrate = 190Mbps
*.switch7.eth[7].bitrate = 240Mbps
*.switch7.eth[8].bitrate = 160Mbps
*.switch7.eth[9].bitrate = 240Mbps
*.switch7.eth[10].bitrate = 220Mbps
*.switch7.eth[11].bitrate = 150Mbps
*.switch7.eth[12].bitrate = 170Mbps
*.switch7.eth[13].bitrate = 190Mbps
*.switch7.eth[14].bitrate = 160Mbps
*.switch7.eth[15].bitrate = 180Mbps
*.switch7.eth[16].bitrate = 180Mbps
*.switch7.eth[17].bitrate = 160Mbps
*.switch7.eth[18].bitrate = 200Mbps
*.switch7.eth[19].bitrate = 240Mbps
*.switch7.eth[20].bitrate = 220Mbps
*.switch7.eth[21].bitrate = 230Mbps
*.host8.eth[0].bitrate = 100Mbps
*.switch8.eth[0].bitrate = 100Mbps
*.switch8.eth[1].bitrate = 190Mbps
*.switch8.eth[2].bitrate = 170Mbps
*.switch8.eth[3].bitrate = 150Mbps
*.switch8.eth[4].bitrate = 210Mbps
*.switch8.eth[5].bitrate = 230Mbps
*.switch8.eth[6].bitrate = 160Mbps
*.switch8.eth[7].bitrate = 180Mbps
*.switch8.eth[8].bitrate = 170Mbps
*.switch8.eth[9].bitrate = 230Mbps
*.switch8.eth[10].bitrate = 180Mbps
*.switch8.eth[11].bitrate = 140Mbps
*.host9.eth[0].bitrate = 100Mbps
*.switch9.eth[0].bitrate = 100Mbps
*.switch9.eth[1].bitrate = 230Mbps
*.switch9.eth[2].bitrate = 210Mbps
*.switch9.eth[3].bitrate = 240Mbps
*.switch9.eth[4].bitrate = 220Mbps
*.switch9.eth[5].bitrate = 240Mbps
*.switch9.eth[6].bitrate = 150Mbps
*.switch9.eth[7].bitrate = 130Mbps
*.switch9.eth[8].bitrate = 220Mbps
*.switch9.eth[9].bitrate = 210Mbps
*.switch9.eth[10].bitrate = 140Mbps
*.switch9.eth[11].bitrate = 210Mbps
*.host10.eth[0].bitrate = 100Mbps
*.switch10.eth[0].bitrate = 100Mbps
*.switch10.eth[1].bitrate = 190Mbps
*.switch10.eth[2].bitrate = 180Mbps
*.switch10.eth[3].bitrate = 180Mbps
*.switch10.eth[4].bitrate = 180Mbps
*.switch10.eth[5].bitrate = 200Mbps
*.switch10.eth[6].bitrate = 120Mbps
*.switch10.eth[7].bitrate = 160Mbps
*.switch10.eth[8].bitrate = 170Mbps
*.switch10.eth[9].bitrate = 130Mbps
*.switch10.eth[10].bitrate = 140Mbps
*.switch10.eth[11].bitrate = 170Mbps
*.switch10.eth[12].bitrate = 130Mbps
*.switch10.eth[13].bitrate = 220Mbps
*.switch10.eth[14].bitrate = 160Mbps
*.host11.eth[0].bitrate = 100Mbps
*.switch11.eth[0].bitrate = 100Mbps
*.switch11.eth[1].bitrate = 240Mbps
*.switch11.eth[2].bitrate = 180Mbps
*.switch11.eth[3].bitrate = 220Mbps
*.switch11.eth[4].bitrate = 200Mbps
*.switch11.eth[5].bitrate = 170Mbps
*.switch11.eth[6].bitrate = 180Mbps
*.switch11.eth[7].bitrate = 190Mbps
*.switch11.eth[8].bitrate = 200Mbps
*.switch11.eth[9].bitrate = 130Mbps
*.switch11.eth[10].bitrate = 120Mbps
*.switch11.eth[11].bitrate = 220Mbps
*.switch11.eth[12].bitrate = 240Mbps
*.host12.eth[0].bitrate = 100Mbps
*.switch12.eth[0].bitrate = 100Mbps
*.switch12.eth[1].bitrate = 240Mbps
*.switch12.eth[2].bitrate = 120Mbps
*.switch12.eth[3].bitrate = 150Mbps
*.switch12.eth[4].bitrate = 170Mbps
*.switch12.eth[5].bitrate = 160Mbps
*.switch12.eth[6].bitrate = 200Mbps
*.switch12.eth[7].bitrate = 210Mbps
*.switch12.eth[8].bitrate = 160Mbps
*.switch12.eth[9].bitrate = 240Mbps
*.switch12.eth[10].bitrate = 230Mbps
*.switch12.eth[11].bitrate = 220Mbps
*.switch12.eth[12].bitrate = 220Mbps
*.switch12.eth[13].bitrate = 220Mbps
*.switch12.eth[14].bitrate = 130Mbps
*.switch12.eth[15].bitrate = 150Mbps
*.switch12.eth[16].bitrate = 160Mbps
*.switch12.eth[17].bitrate = 140Mbps
*.switch12.eth[18].bitrate = 190Mbps
*.switch12.eth[19].bitrate = 230Mbps
*.switch12.eth[20].bitrate = 200Mbps
*.host13.eth[0].bitrate = 100Mbps
*.switch13.eth[0].bitrate = 100Mbps
*.switch13.eth[1].bitrate = 230Mbps
*.switch13.eth[2].bitrate = 120Mbps
*.switch13.eth[3].bitrate = 150Mbps
*.switch13.eth[4].bitrate = 130Mbps
*.switch13.eth[5].bitrate = 220Mbps
*.switch13.eth[6].bitrate = 220Mbps
*.switch13.eth[7].bitrate = 180Mbps
*.switch13.eth[8].bitrate = 240Mbps
*.switch13.eth[9].bitrate = 120Mbps
*.switch13.eth[10].bitrate = 190Mbps
*.switch13.eth[11].bitrate = 140Mbps
*.switch13.eth[12].bitrate = 120Mbps
*.host14.eth[0].bitrate = 100Mbps
*.switch14.eth[0].bitrate = 100Mbps
*.switch14.eth[1].bitrate = 140Mbps
*.switch14.eth[2].bitrate = 210Mbps
*.switch14.eth[3].bitrate = 190Mbps
*.switch14.eth[4].bitrate = 220Mbps
*.switch14.eth[5].bitrate = 240Mbps
*.switch14.eth[6].bitrate = 170Mbps
*.switch14.eth[7].bitrate = 170Mbps
*.switch14.eth[8].bitrate = 150Mbps
*.switch14.eth[9].bitrate = 220Mbps
*.switch14.eth[10].bitrate = 150Mbps
*.switch14.eth[11].bitrate = 230Mbps
*.switch14.eth[12].bitrate = 210Mbps
*.switch14.eth[13].bitrate = 190Mbps
*.switch14.eth[14].bitrate = 170Mbps
*.switch14.eth[15].bitrate = 170Mbps
*.switch14.eth[16].bitrate = 140Mbps
*.switch14.eth[17].bitrate = 180Mbps
*.switch14.eth[18].bitrate = 240Mbps
*.host15.eth[0].bitrate = 100Mbps
*.switch15.eth[0].bitrate = 100Mbps
*.switch15.eth[1].bitrate = 140Mbps
*.switch15.eth[2].bitrate = 160Mbps
*.switch15.eth[3].bitrate = 240Mbps
*.switch15.eth[4].bitrate = 190Mbps
*.switch15.eth[5].bitrate = 120Mbps
*.switch15.eth[6].bitrate = 170Mbps
*.switch15.eth[7].bitrate = 120Mbps
*.switch15.eth[8].bitrate = 160Mbps
*.switch15.eth[9].bitrate = 240Mbps
*.switch15.eth[10].bitrate = 140Mbps
*.switch15.eth[11].bitrate = 230Mbps
*.switch15.eth[12].bitrate = 150Mbps
*.switch15.eth[13].bitrate = 180Mbps
*.switch15.eth[14].bitrate = 170Mbps
*.host16.eth[0].bitrate = 100Mbps
*.switch16.eth[0].bitrate = 100Mbps
*.switch16.eth[1].bitrate = 120Mbps
*.switch16.eth[2].bitrate = 220Mbps
*.switch16.eth[3].bitrate = 180Mbps
*.switch16.eth[4].bitrate = 130Mbps
*.switch16.eth[5].bitrate = 170Mbps
*.switch16.eth[6].bitrate = 160Mbps
*.switch16.eth[7].bitrate = 120Mbps
*.switch16.eth[8].bitrate = 150Mbps
*.switch16.eth[9].bitrate = 170Mbps
*.switch16.eth[10].bitrate = 150Mbps
*.switch16.eth[11].bitrate = 240Mbps
*.switch16.eth[12].bitrate = 140Mbps
*.switch16.eth[13].bitrate = 180Mbps
*.switch16.eth[14].bitrate = 150Mbps
*.switch16.eth[15].bitrate = 240Mbps
*.switch16.eth[16].bitrate = 220Mbps
*.host17.eth[0].bitrate = 100Mbps
*.switch17.eth[0].bitrate = 100Mbps
*.switch17.eth[1].bitrate = 190Mbps
*.switch17.eth[2].bitrate = 190Mbps
*.switch17.eth[3].bitrate = 210Mbps
*.switch17.eth[4].bitrate = 170Mbps
*.switch17.eth[5].bitrate = 120Mbps
*.switch17.eth[6].bitrate = 180Mbps
*.switch17.eth[7].bitrate = 140Mbps
*.switch17.eth[8].bitrate = 150Mbps
*.switch17.eth[9].bitrate = 220Mbps
*.switch17.eth[10].bitrate = 210Mbps
*.switch17.eth[11].bitrate = 200Mbps
*.switch17.eth[12].bitrate = 240Mbps
*.switch17.eth[13].bitrate = 170Mbps
*.switch17.eth[14].bitrate = 240Mbps
*.switch17.eth[15].bitrate = 180Mbps
*.switch17.eth[16].bitrate = 160Mbps
*.switch17.eth[17].bitrate = 210Mbps
*.host18.eth[0].bitrate = 100Mbps
*.switch18.eth[0].bitrate = 100Mbps
*.switch18.eth[1].bitrate = 210Mbps
*.switch18.eth[2].bitrate = 210Mbps
*.switch18.eth[3].bitrate = 170Mbps
*.switch18.eth[4].bitrate = 230Mbps
*.switch18.eth[5].bitrate = 180Mbps
*.switch18.eth[6].bitrate = 140Mbps
*.switch18.eth[7].bitrate = 160Mbps
*.switch18.eth[8].bitrate = 190Mbps
*.switch18.eth[9].bitrate = 180Mbps
*.switch18.eth[10].bitrate = 130Mbps
*.switch18.eth[11].bitrate = 130Mbps
*.switch18.eth[12].bitrate = 170Mbps
*.switch18.eth[13].bitrate = 140Mbps
*.switch18.eth[14].bitrate = 220Mbps
*.switch18.eth[15].bitrate = 230Mbps
*.host19.eth[0].bitrate = 100Mbps
*.switch19.eth[0].bitrate = 100Mbps
*.switch19.eth[1].bitrate = 150Mbps
*.switch19.eth[2].bitrate = 170Mbps
*.switch19.eth[3].bitrate = 170Mbps
*.switch19.eth[4].bitrate = 180Mbps
*.switch19.eth[5].bitrate = 170Mbps
*.switch19.eth[6].bitrate = 140Mbps
*.switch19.eth[7].bitrate = 180Mbps
*.switch19.eth[8].bitrate = 160Mbps
*.switch19.eth[9].bitrate = 230Mbps
*.switch19.eth[10].bitrate = 230Mbps
*.switch19.eth[11].bitrate = 160Mbps
*.switch19.eth[12].bitrate = 120Mbps
*.switch19.eth[13].bitrate = 210Mbps

# Apps
*.host7.numApps = 1
*.host7.app[0].typename = "UdpSourceApp"
*.host7.app[0].io.destAddress = "host10"
*.host7.app[0].source.packetNameFormat = "%M-%m-%c"
*.host7.app[0].source.displayStringTextFormat = "sent %p pk (%l)"
*.host7.app[0].source.packetLength = 20B
*.host7.app[0].source.productionInterval = 100us
*.host7.app[0].display-name = "type2_14"
*.host7.app[0].io.destPort = 1000

*.host10.numApps = 1
*.host10.app[0].typename = "UdpSinkApp"
*.host10.app[0].io.localPort = 1000

# seamless stream redundancy configuration
*.streamRedundancyConfigurator.configuration = [
    {
        name: "shortest_path", 
        packetFilter: "*-type2_14-*", 
        source: "host7", 
        destination: "host10",
        trees: [[["host7", "switch7", "switch6", "switch10", "host10"]]]
    }]
