[General]
network = TSN_multipath
sim-time-limit = 100ms
*.macForwardingTableConfigurator.typename = ""
*.*.hasStreamRedundancy = true
*.*.bridging.streamRelay.typename = "StreamRelayLayer"
*.*.bridging.streamCoder.typename = "StreamCoderLayer"
*.streamRedundancyConfigurator.typename = "StreamRedundancyConfigurator"
*.host0.eth[0].bitrate = 1000Mbps
*.switch0.eth[0].bitrate = 1000Mbps
*.switch0.eth[1].bitrate = 1600Mbps
*.switch0.eth[2].bitrate = 2300Mbps
*.switch0.eth[3].bitrate = 1900Mbps
*.switch0.eth[4].bitrate = 1600Mbps
*.switch0.eth[5].bitrate = 2100Mbps
*.switch0.eth[6].bitrate = 1800Mbps
*.switch0.eth[7].bitrate = 1700Mbps
*.switch0.eth[8].bitrate = 1800Mbps
*.switch0.eth[9].bitrate = 1400Mbps
*.switch0.eth[10].bitrate = 1200Mbps
*.switch0.eth[11].bitrate = 1500Mbps
*.switch0.eth[12].bitrate = 2200Mbps
*.switch0.eth[13].bitrate = 1400Mbps
*.switch0.eth[14].bitrate = 2100Mbps
*.switch0.eth[15].bitrate = 1200Mbps
*.switch0.eth[16].bitrate = 1900Mbps
*.switch0.eth[17].bitrate = 2100Mbps
*.switch0.eth[18].bitrate = 2300Mbps
*.switch0.eth[19].bitrate = 2300Mbps
*.switch0.eth[20].bitrate = 2000Mbps
*.switch0.eth[21].bitrate = 1700Mbps
*.switch0.eth[22].bitrate = 2100Mbps
*.switch0.eth[23].bitrate = 1200Mbps
*.switch0.eth[24].bitrate = 2000Mbps
*.switch0.eth[25].bitrate = 1500Mbps
*.switch0.eth[26].bitrate = 2200Mbps
*.switch0.eth[27].bitrate = 2300Mbps
*.switch0.eth[28].bitrate = 1500Mbps
*.host1.eth[0].bitrate = 1000Mbps
*.switch1.eth[0].bitrate = 1000Mbps
*.switch1.eth[1].bitrate = 1600Mbps
*.switch1.eth[2].bitrate = 2100Mbps
*.switch1.eth[3].bitrate = 1600Mbps
*.switch1.eth[4].bitrate = 1900Mbps
*.switch1.eth[5].bitrate = 1900Mbps
*.switch1.eth[6].bitrate = 1900Mbps
*.switch1.eth[7].bitrate = 2300Mbps
*.switch1.eth[8].bitrate = 2100Mbps
*.switch1.eth[9].bitrate = 2300Mbps
*.switch1.eth[10].bitrate = 1600Mbps
*.switch1.eth[11].bitrate = 2100Mbps
*.switch1.eth[12].bitrate = 2000Mbps
*.switch1.eth[13].bitrate = 1500Mbps
*.switch1.eth[14].bitrate = 1500Mbps
*.switch1.eth[15].bitrate = 2300Mbps
*.switch1.eth[16].bitrate = 2400Mbps
*.switch1.eth[17].bitrate = 1600Mbps
*.switch1.eth[18].bitrate = 2200Mbps
*.switch1.eth[19].bitrate = 1300Mbps
*.switch1.eth[20].bitrate = 1400Mbps
*.switch1.eth[21].bitrate = 2200Mbps
*.host2.eth[0].bitrate = 1000Mbps
*.switch2.eth[0].bitrate = 1000Mbps
*.switch2.eth[1].bitrate = 1600Mbps
*.switch2.eth[2].bitrate = 2300Mbps
*.switch2.eth[3].bitrate = 1300Mbps
*.switch2.eth[4].bitrate = 2400Mbps
*.switch2.eth[5].bitrate = 1300Mbps
*.switch2.eth[6].bitrate = 2200Mbps
*.switch2.eth[7].bitrate = 1600Mbps
*.switch2.eth[8].bitrate = 1200Mbps
*.switch2.eth[9].bitrate = 2000Mbps
*.switch2.eth[10].bitrate = 1200Mbps
*.switch2.eth[11].bitrate = 2000Mbps
*.host3.eth[0].bitrate = 1000Mbps
*.switch3.eth[0].bitrate = 1000Mbps
*.switch3.eth[1].bitrate = 2300Mbps
*.switch3.eth[2].bitrate = 2300Mbps
*.switch3.eth[3].bitrate = 2100Mbps
*.switch3.eth[4].bitrate = 2400Mbps
*.switch3.eth[5].bitrate = 1500Mbps
*.switch3.eth[6].bitrate = 1700Mbps
*.switch3.eth[7].bitrate = 2300Mbps
*.switch3.eth[8].bitrate = 1700Mbps
*.switch3.eth[9].bitrate = 1900Mbps
*.switch3.eth[10].bitrate = 2100Mbps
*.switch3.eth[11].bitrate = 1200Mbps
*.switch3.eth[12].bitrate = 1700Mbps
*.switch3.eth[13].bitrate = 1200Mbps
*.switch3.eth[14].bitrate = 2200Mbps
*.switch3.eth[15].bitrate = 2000Mbps
*.switch3.eth[16].bitrate = 2400Mbps
*.switch3.eth[17].bitrate = 1900Mbps
*.switch3.eth[18].bitrate = 2400Mbps
*.switch3.eth[19].bitrate = 1500Mbps
*.switch3.eth[20].bitrate = 1400Mbps
*.switch3.eth[21].bitrate = 2400Mbps
*.switch3.eth[22].bitrate = 2400Mbps
*.switch3.eth[23].bitrate = 2100Mbps
*.switch3.eth[24].bitrate = 2300Mbps
*.host4.eth[0].bitrate = 1000Mbps
*.switch4.eth[0].bitrate = 1000Mbps
*.switch4.eth[1].bitrate = 1900Mbps
*.switch4.eth[2].bitrate = 1500Mbps
*.switch4.eth[3].bitrate = 2000Mbps
*.switch4.eth[4].bitrate = 1500Mbps
*.switch4.eth[5].bitrate = 1200Mbps
*.switch4.eth[6].bitrate = 2100Mbps
*.switch4.eth[7].bitrate = 2300Mbps
*.switch4.eth[8].bitrate = 2100Mbps
*.switch4.eth[9].bitrate = 1400Mbps
*.switch4.eth[10].bitrate = 1700Mbps
*.switch4.eth[11].bitrate = 1600Mbps
*.switch4.eth[12].bitrate = 1500Mbps
*.switch4.eth[13].bitrate = 2200Mbps
*.switch4.eth[14].bitrate = 1900Mbps
*.switch4.eth[15].bitrate = 1200Mbps
*.switch4.eth[16].bitrate = 1600Mbps
*.switch4.eth[17].bitrate = 1500Mbps
*.host5.eth[0].bitrate = 1000Mbps
*.switch5.eth[0].bitrate = 1000Mbps
*.switch5.eth[1].bitrate = 1600Mbps
*.switch5.eth[2].bitrate = 1700Mbps
*.switch5.eth[3].bitrate = 2300Mbps
*.switch5.eth[4].bitrate = 1600Mbps
*.switch5.eth[5].bitrate = 2200Mbps
*.switch5.eth[6].bitrate = 2200Mbps
*.switch5.eth[7].bitrate = 1500Mbps
*.switch5.eth[8].bitrate = 1700Mbps
*.switch5.eth[9].bitrate = 1600Mbps
*.switch5.eth[10].bitrate = 1900Mbps
*.switch5.eth[11].bitrate = 1600Mbps
*.switch5.eth[12].bitrate = 2400Mbps
*.switch5.eth[13].bitrate = 2200Mbps
*.switch5.eth[14].bitrate = 2000Mbps
*.switch5.eth[15].bitrate = 2300Mbps
*.switch5.eth[16].bitrate = 1400Mbps
*.host6.eth[0].bitrate = 1000Mbps
*.switch6.eth[0].bitrate = 1000Mbps
*.switch6.eth[1].bitrate = 2100Mbps
*.switch6.eth[2].bitrate = 2300Mbps
*.switch6.eth[3].bitrate = 1500Mbps
*.switch6.eth[4].bitrate = 2200Mbps
*.switch6.eth[5].bitrate = 2000Mbps
*.switch6.eth[6].bitrate = 1500Mbps
*.switch6.eth[7].bitrate = 1300Mbps
*.switch6.eth[8].bitrate = 2400Mbps
*.switch6.eth[9].bitrate = 1500Mbps
*.switch6.eth[10].bitrate = 1600Mbps
*.switch6.eth[11].bitrate = 2000Mbps
*.switch6.eth[12].bitrate = 1700Mbps
*.switch6.eth[13].bitrate = 1500Mbps
*.switch6.eth[14].bitrate = 2000Mbps
*.switch6.eth[15].bitrate = 1800Mbps
*.switch6.eth[16].bitrate = 1300Mbps
*.switch6.eth[17].bitrate = 1400Mbps
*.switch6.eth[18].bitrate = 2000Mbps
*.switch6.eth[19].bitrate = 1800Mbps
*.switch6.eth[20].bitrate = 1200Mbps
*.switch6.eth[21].bitrate = 1300Mbps
*.switch6.eth[22].bitrate = 2300Mbps
*.switch6.eth[23].bitrate = 1300Mbps
*.switch6.eth[24].bitrate = 2400Mbps
*.switch6.eth[25].bitrate = 2400Mbps
*.host7.eth[0].bitrate = 1000Mbps
*.switch7.eth[0].bitrate = 1000Mbps
*.switch7.eth[1].bitrate = 1800Mbps
*.switch7.eth[2].bitrate = 1700Mbps
*.switch7.eth[3].bitrate = 2200Mbps
*.switch7.eth[4].bitrate = 2000Mbps
*.switch7.eth[5].bitrate = 1500Mbps
*.switch7.eth[6].bitrate = 1500Mbps
*.switch7.eth[7].bitrate = 1900Mbps
*.switch7.eth[8].bitrate = 1800Mbps
*.switch7.eth[9].bitrate = 1800Mbps
*.switch7.eth[10].bitrate = 2100Mbps
*.switch7.eth[11].bitrate = 1500Mbps
*.switch7.eth[12].bitrate = 1600Mbps
*.switch7.eth[13].bitrate = 1800Mbps
*.switch7.eth[14].bitrate = 1300Mbps
*.switch7.eth[15].bitrate = 1600Mbps
*.switch7.eth[16].bitrate = 1400Mbps
*.switch7.eth[17].bitrate = 2200Mbps
*.switch7.eth[18].bitrate = 2400Mbps
*.switch7.eth[19].bitrate = 1500Mbps
*.switch7.eth[20].bitrate = 1300Mbps
*.switch7.eth[21].bitrate = 2000Mbps
*.switch7.eth[22].bitrate = 1700Mbps
*.host8.eth[0].bitrate = 1000Mbps
*.switch8.eth[0].bitrate = 1000Mbps
*.switch8.eth[1].bitrate = 1700Mbps
*.switch8.eth[2].bitrate = 1900Mbps
*.switch8.eth[3].bitrate = 1200Mbps
*.switch8.eth[4].bitrate = 1700Mbps
*.switch8.eth[5].bitrate = 1800Mbps
*.switch8.eth[6].bitrate = 2200Mbps
*.switch8.eth[7].bitrate = 1600Mbps
*.switch8.eth[8].bitrate = 1700Mbps
*.switch8.eth[9].bitrate = 2000Mbps
*.switch8.eth[10].bitrate = 2100Mbps
*.switch8.eth[11].bitrate = 1700Mbps
*.switch8.eth[12].bitrate = 1500Mbps
*.switch8.eth[13].bitrate = 2400Mbps
*.switch8.eth[14].bitrate = 1600Mbps
*.switch8.eth[15].bitrate = 1500Mbps
*.switch8.eth[16].bitrate = 2300Mbps
*.host9.eth[0].bitrate = 1000Mbps
*.switch9.eth[0].bitrate = 1000Mbps
*.switch9.eth[1].bitrate = 1800Mbps
*.switch9.eth[2].bitrate = 1900Mbps
*.switch9.eth[3].bitrate = 2100Mbps
*.switch9.eth[4].bitrate = 2100Mbps
*.switch9.eth[5].bitrate = 2100Mbps
*.switch9.eth[6].bitrate = 1700Mbps
*.switch9.eth[7].bitrate = 1200Mbps
*.switch9.eth[8].bitrate = 2100Mbps
*.switch9.eth[9].bitrate = 2100Mbps
*.switch9.eth[10].bitrate = 1200Mbps
*.switch9.eth[11].bitrate = 2100Mbps
*.switch9.eth[12].bitrate = 1600Mbps
*.switch9.eth[13].bitrate = 1800Mbps
*.switch9.eth[14].bitrate = 2100Mbps
*.switch9.eth[15].bitrate = 1200Mbps
*.host10.eth[0].bitrate = 1000Mbps
*.switch10.eth[0].bitrate = 1000Mbps
*.switch10.eth[1].bitrate = 1400Mbps
*.switch10.eth[2].bitrate = 1200Mbps
*.switch10.eth[3].bitrate = 2300Mbps
*.switch10.eth[4].bitrate = 1500Mbps
*.switch10.eth[5].bitrate = 1700Mbps
*.switch10.eth[6].bitrate = 2100Mbps
*.switch10.eth[7].bitrate = 2300Mbps
*.switch10.eth[8].bitrate = 2200Mbps
*.switch10.eth[9].bitrate = 1900Mbps
*.switch10.eth[10].bitrate = 1700Mbps
*.switch10.eth[11].bitrate = 2100Mbps
*.switch10.eth[12].bitrate = 2200Mbps
*.switch10.eth[13].bitrate = 2200Mbps
*.switch10.eth[14].bitrate = 2000Mbps
*.switch10.eth[15].bitrate = 1900Mbps
*.switch10.eth[16].bitrate = 1700Mbps
*.switch10.eth[17].bitrate = 1400Mbps
*.switch10.eth[18].bitrate = 1500Mbps
*.switch10.eth[19].bitrate = 1900Mbps
*.switch10.eth[20].bitrate = 1400Mbps
*.switch10.eth[21].bitrate = 1300Mbps
*.switch10.eth[22].bitrate = 1800Mbps
*.switch10.eth[23].bitrate = 1900Mbps
*.switch10.eth[24].bitrate = 1800Mbps
*.switch10.eth[25].bitrate = 1400Mbps
*.host11.eth[0].bitrate = 1000Mbps
*.switch11.eth[0].bitrate = 1000Mbps
*.switch11.eth[1].bitrate = 1200Mbps
*.switch11.eth[2].bitrate = 1900Mbps
*.switch11.eth[3].bitrate = 2300Mbps
*.switch11.eth[4].bitrate = 1500Mbps
*.switch11.eth[5].bitrate = 2000Mbps
*.switch11.eth[6].bitrate = 1500Mbps
*.switch11.eth[7].bitrate = 2200Mbps
*.switch11.eth[8].bitrate = 1200Mbps
*.switch11.eth[9].bitrate = 2400Mbps
*.switch11.eth[10].bitrate = 1400Mbps
*.switch11.eth[11].bitrate = 2400Mbps
*.switch11.eth[12].bitrate = 1300Mbps
*.switch11.eth[13].bitrate = 2400Mbps
*.switch11.eth[14].bitrate = 1200Mbps
*.switch11.eth[15].bitrate = 1400Mbps
*.switch11.eth[16].bitrate = 2000Mbps
*.switch11.eth[17].bitrate = 1800Mbps
*.switch11.eth[18].bitrate = 2100Mbps
*.switch11.eth[19].bitrate = 1200Mbps
*.switch11.eth[20].bitrate = 2200Mbps
*.switch11.eth[21].bitrate = 2300Mbps
*.switch11.eth[22].bitrate = 2100Mbps
*.switch11.eth[23].bitrate = 1300Mbps
*.switch11.eth[24].bitrate = 2300Mbps
*.switch11.eth[25].bitrate = 2300Mbps
*.host12.eth[0].bitrate = 1000Mbps
*.switch12.eth[0].bitrate = 1000Mbps
*.switch12.eth[1].bitrate = 1500Mbps
*.switch12.eth[2].bitrate = 1900Mbps
*.switch12.eth[3].bitrate = 1700Mbps
*.switch12.eth[4].bitrate = 1700Mbps
*.switch12.eth[5].bitrate = 1800Mbps
*.switch12.eth[6].bitrate = 2200Mbps
*.switch12.eth[7].bitrate = 2000Mbps
*.switch12.eth[8].bitrate = 2000Mbps
*.switch12.eth[9].bitrate = 1600Mbps
*.switch12.eth[10].bitrate = 1600Mbps
*.switch12.eth[11].bitrate = 1200Mbps
*.switch12.eth[12].bitrate = 2200Mbps
*.switch12.eth[13].bitrate = 1500Mbps
*.switch12.eth[14].bitrate = 1500Mbps
*.switch12.eth[15].bitrate = 1300Mbps
*.switch12.eth[16].bitrate = 1300Mbps
*.switch12.eth[17].bitrate = 1200Mbps
*.switch12.eth[18].bitrate = 1500Mbps
*.switch12.eth[19].bitrate = 1200Mbps
*.switch12.eth[20].bitrate = 1400Mbps
*.switch12.eth[21].bitrate = 2200Mbps
*.switch12.eth[22].bitrate = 1600Mbps
*.switch12.eth[23].bitrate = 1900Mbps
*.switch12.eth[24].bitrate = 1800Mbps
*.switch12.eth[25].bitrate = 2200Mbps
*.host13.eth[0].bitrate = 1000Mbps
*.switch13.eth[0].bitrate = 1000Mbps
*.switch13.eth[1].bitrate = 2200Mbps
*.switch13.eth[2].bitrate = 2300Mbps
*.switch13.eth[3].bitrate = 1300Mbps
*.switch13.eth[4].bitrate = 1200Mbps
*.switch13.eth[5].bitrate = 2100Mbps
*.switch13.eth[6].bitrate = 1600Mbps
*.switch13.eth[7].bitrate = 2000Mbps
*.switch13.eth[8].bitrate = 1800Mbps
*.switch13.eth[9].bitrate = 1300Mbps
*.switch13.eth[10].bitrate = 1500Mbps
*.switch13.eth[11].bitrate = 1200Mbps
*.switch13.eth[12].bitrate = 2400Mbps
*.switch13.eth[13].bitrate = 1600Mbps
*.switch13.eth[14].bitrate = 2000Mbps
*.switch13.eth[15].bitrate = 2300Mbps
*.switch13.eth[16].bitrate = 2100Mbps
*.switch13.eth[17].bitrate = 1800Mbps
*.switch13.eth[18].bitrate = 1300Mbps
*.switch13.eth[19].bitrate = 1600Mbps
*.switch13.eth[20].bitrate = 2300Mbps
*.switch13.eth[21].bitrate = 1200Mbps
*.switch13.eth[22].bitrate = 2400Mbps
*.switch13.eth[23].bitrate = 2400Mbps
*.switch13.eth[24].bitrate = 2400Mbps
*.switch13.eth[25].bitrate = 2100Mbps
*.switch13.eth[26].bitrate = 2000Mbps
*.switch13.eth[27].bitrate = 1800Mbps
*.host14.eth[0].bitrate = 1000Mbps
*.switch14.eth[0].bitrate = 1000Mbps
*.switch14.eth[1].bitrate = 1400Mbps
*.switch14.eth[2].bitrate = 2200Mbps
*.switch14.eth[3].bitrate = 1300Mbps
*.switch14.eth[4].bitrate = 1900Mbps
*.switch14.eth[5].bitrate = 2100Mbps
*.switch14.eth[6].bitrate = 1200Mbps
*.switch14.eth[7].bitrate = 1300Mbps
*.switch14.eth[8].bitrate = 1300Mbps
*.switch14.eth[9].bitrate = 1600Mbps
*.switch14.eth[10].bitrate = 2100Mbps
*.switch14.eth[11].bitrate = 1500Mbps
*.switch14.eth[12].bitrate = 2400Mbps
*.switch14.eth[13].bitrate = 2300Mbps
*.host15.eth[0].bitrate = 1000Mbps
*.switch15.eth[0].bitrate = 1000Mbps
*.switch15.eth[1].bitrate = 2100Mbps
*.switch15.eth[2].bitrate = 2100Mbps
*.switch15.eth[3].bitrate = 2000Mbps
*.switch15.eth[4].bitrate = 1400Mbps
*.switch15.eth[5].bitrate = 1800Mbps
*.switch15.eth[6].bitrate = 1700Mbps
*.switch15.eth[7].bitrate = 1200Mbps
*.switch15.eth[8].bitrate = 1500Mbps
*.switch15.eth[9].bitrate = 2300Mbps
*.switch15.eth[10].bitrate = 2200Mbps
*.switch15.eth[11].bitrate = 2200Mbps
*.switch15.eth[12].bitrate = 2000Mbps
*.switch15.eth[13].bitrate = 2400Mbps
*.switch15.eth[14].bitrate = 2300Mbps
*.switch15.eth[15].bitrate = 2000Mbps
*.switch15.eth[16].bitrate = 1800Mbps
*.switch15.eth[17].bitrate = 2100Mbps
*.switch15.eth[18].bitrate = 1500Mbps
*.switch15.eth[19].bitrate = 1900Mbps
*.switch15.eth[20].bitrate = 2200Mbps
*.switch15.eth[21].bitrate = 1700Mbps
*.switch15.eth[22].bitrate = 1700Mbps
*.host16.eth[0].bitrate = 1000Mbps
*.switch16.eth[0].bitrate = 1000Mbps
*.switch16.eth[1].bitrate = 2300Mbps
*.switch16.eth[2].bitrate = 1400Mbps
*.switch16.eth[3].bitrate = 1300Mbps
*.switch16.eth[4].bitrate = 1400Mbps
*.switch16.eth[5].bitrate = 2200Mbps
*.switch16.eth[6].bitrate = 1200Mbps
*.switch16.eth[7].bitrate = 1200Mbps
*.switch16.eth[8].bitrate = 2300Mbps
*.switch16.eth[9].bitrate = 1300Mbps
*.switch16.eth[10].bitrate = 1200Mbps
*.switch16.eth[11].bitrate = 2400Mbps
*.switch16.eth[12].bitrate = 1700Mbps
*.switch16.eth[13].bitrate = 2400Mbps
*.switch16.eth[14].bitrate = 2100Mbps
*.switch16.eth[15].bitrate = 1900Mbps
*.switch16.eth[16].bitrate = 2300Mbps
*.switch16.eth[17].bitrate = 1900Mbps
*.switch16.eth[18].bitrate = 2400Mbps
*.switch16.eth[19].bitrate = 2200Mbps
*.switch16.eth[20].bitrate = 2300Mbps
*.switch16.eth[21].bitrate = 2000Mbps
*.switch16.eth[22].bitrate = 2400Mbps
*.switch16.eth[23].bitrate = 1900Mbps
*.switch16.eth[24].bitrate = 1300Mbps
*.host17.eth[0].bitrate = 1000Mbps
*.switch17.eth[0].bitrate = 1000Mbps
*.switch17.eth[1].bitrate = 1600Mbps
*.switch17.eth[2].bitrate = 2400Mbps
*.switch17.eth[3].bitrate = 2000Mbps
*.switch17.eth[4].bitrate = 1600Mbps
*.switch17.eth[5].bitrate = 1500Mbps
*.switch17.eth[6].bitrate = 2400Mbps
*.switch17.eth[7].bitrate = 2100Mbps
*.switch17.eth[8].bitrate = 2300Mbps
*.switch17.eth[9].bitrate = 1500Mbps
*.switch17.eth[10].bitrate = 1400Mbps
*.switch17.eth[11].bitrate = 2000Mbps
*.switch17.eth[12].bitrate = 2100Mbps
*.switch17.eth[13].bitrate = 1500Mbps
*.switch17.eth[14].bitrate = 1400Mbps
*.switch17.eth[15].bitrate = 2400Mbps
*.switch17.eth[16].bitrate = 1600Mbps
*.switch17.eth[17].bitrate = 1200Mbps
*.switch17.eth[18].bitrate = 1800Mbps
*.switch17.eth[19].bitrate = 2300Mbps
*.switch17.eth[20].bitrate = 1800Mbps
*.switch17.eth[21].bitrate = 2000Mbps
*.switch17.eth[22].bitrate = 2300Mbps
*.switch17.eth[23].bitrate = 1700Mbps
*.switch17.eth[24].bitrate = 1900Mbps
*.switch17.eth[25].bitrate = 1900Mbps
*.switch17.eth[26].bitrate = 1700Mbps
*.host18.eth[0].bitrate = 1000Mbps
*.switch18.eth[0].bitrate = 1000Mbps
*.switch18.eth[1].bitrate = 1200Mbps
*.switch18.eth[2].bitrate = 1700Mbps
*.switch18.eth[3].bitrate = 1400Mbps
*.switch18.eth[4].bitrate = 1900Mbps
*.switch18.eth[5].bitrate = 2300Mbps
*.switch18.eth[6].bitrate = 1400Mbps
*.switch18.eth[7].bitrate = 2400Mbps
*.switch18.eth[8].bitrate = 1900Mbps
*.switch18.eth[9].bitrate = 2000Mbps
*.switch18.eth[10].bitrate = 1900Mbps
*.switch18.eth[11].bitrate = 2200Mbps
*.switch18.eth[12].bitrate = 1500Mbps
*.switch18.eth[13].bitrate = 1400Mbps
*.switch18.eth[14].bitrate = 2200Mbps
*.switch18.eth[15].bitrate = 1800Mbps
*.switch18.eth[16].bitrate = 1700Mbps
*.switch18.eth[17].bitrate = 1300Mbps
*.host19.eth[0].bitrate = 1000Mbps
*.switch19.eth[0].bitrate = 1000Mbps
*.switch19.eth[1].bitrate = 1900Mbps
*.switch19.eth[2].bitrate = 1900Mbps
*.switch19.eth[3].bitrate = 2200Mbps
*.switch19.eth[4].bitrate = 2000Mbps
*.switch19.eth[5].bitrate = 2100Mbps
*.switch19.eth[6].bitrate = 2200Mbps
*.switch19.eth[7].bitrate = 2400Mbps
*.switch19.eth[8].bitrate = 2400Mbps
*.switch19.eth[9].bitrate = 1700Mbps
*.switch19.eth[10].bitrate = 2300Mbps
*.switch19.eth[11].bitrate = 2300Mbps
*.host0.numApps = 10
*.host0.app[0].typename = "UdpSinkApp"
*.host0.app[0].io.localPort = 1000
*.host0.app[1].typename = "UdpSinkApp"
*.host0.app[1].io.localPort = 1001
*.host0.app[2].typename = "UdpBasicApp"
*.host0.app[2].destAddresses = "host3"
*.host0.app[2].source.packetNameFormat = "%M-%m-%c"
*.host0.app[2].source.displayStringTextFormat = "sent %p pk (%l)"
*.host0.app[2].messageLength = 23B
*.host0.app[2].sendInterval = 1ms
*.host0.app[2].startTime = 1ms
*.host0.app[2].stopTime = 3ms
*.host0.app[2].display-name = "type2_11"
*.host0.app[2].destPort = 1002
*.host0.app[3].typename = "UdpBasicApp"
*.host0.app[3].destAddresses = "host3"
*.host0.app[3].source.packetNameFormat = "%M-%m-%c"
*.host0.app[3].source.displayStringTextFormat = "sent %p pk (%l)"
*.host0.app[3].messageLength = 23B
*.host0.app[3].sendInterval = 1ms
*.host0.app[3].startTime = 15ms
*.host0.app[3].stopTime = 20ms
*.host0.app[3].display-name = "type2_11"
*.host0.app[3].destPort = 1002
*.host0.app[4].typename = "UdpBasicApp"
*.host0.app[4].destAddresses = "host3"
*.host0.app[4].source.packetNameFormat = "%M-%m-%c"
*.host0.app[4].source.displayStringTextFormat = "sent %p pk (%l)"
*.host0.app[4].messageLength = 23B
*.host0.app[4].sendInterval = 1ms
*.host0.app[4].startTime = 50ms
*.host0.app[4].stopTime = 59ms
*.host0.app[4].display-name = "type2_11"
*.host0.app[4].destPort = 1002
*.host0.app[5].typename = "UdpBasicApp"
*.host0.app[5].destAddresses = "host3"
*.host0.app[5].source.packetNameFormat = "%M-%m-%c"
*.host0.app[5].source.displayStringTextFormat = "sent %p pk (%l)"
*.host0.app[5].messageLength = 23B
*.host0.app[5].sendInterval = 1ms
*.host0.app[5].startTime = 73ms
*.host0.app[5].stopTime = 75ms
*.host0.app[5].display-name = "type2_11"
*.host0.app[5].destPort = 1002
*.host0.app[6].typename = "UdpBasicApp"
*.host0.app[6].destAddresses = "host3"
*.host0.app[6].source.packetNameFormat = "%M-%m-%c"
*.host0.app[6].source.displayStringTextFormat = "sent %p pk (%l)"
*.host0.app[6].messageLength = 23B
*.host0.app[6].sendInterval = 1ms
*.host0.app[6].startTime = 78ms
*.host0.app[6].stopTime = 80ms
*.host0.app[6].display-name = "type2_11"
*.host0.app[6].destPort = 1002
*.host0.app[7].typename = "UdpBasicApp"
*.host0.app[7].destAddresses = "host3"
*.host0.app[7].source.packetNameFormat = "%M-%m-%c"
*.host0.app[7].source.displayStringTextFormat = "sent %p pk (%l)"
*.host0.app[7].messageLength = 23B
*.host0.app[7].sendInterval = 1ms
*.host0.app[7].startTime = 81ms
*.host0.app[7].stopTime = 91ms
*.host0.app[7].display-name = "type2_11"
*.host0.app[7].destPort = 1002
*.host0.app[8].typename = "UdpBasicApp"
*.host0.app[8].destAddresses = "host3"
*.host0.app[8].source.packetNameFormat = "%M-%m-%c"
*.host0.app[8].source.displayStringTextFormat = "sent %p pk (%l)"
*.host0.app[8].messageLength = 23B
*.host0.app[8].sendInterval = 1ms
*.host0.app[8].startTime = 99ms
*.host0.app[8].stopTime = 100ms
*.host0.app[8].display-name = "type2_11"
*.host0.app[8].destPort = 1002
*.host0.app[9].typename = "UdpSinkApp"
*.host0.app[9].io.localPort = 1002
*.host1.numApps = 2
*.host1.app[0].typename = "UdpSinkApp"
*.host1.app[0].io.localPort = 1000
*.host1.app[1].typename = "UdpSinkApp"
*.host1.app[1].io.localPort = 1001
*.host2.numApps = 1
*.host2.app[0].typename = "UdpSinkApp"
*.host2.app[0].io.localPort = 1000
*.host3.numApps = 16
*.host3.app[0].typename = "UdpSinkApp"
*.host3.app[0].io.localPort = 1000
*.host3.app[1].typename = "UdpSinkApp"
*.host3.app[1].io.localPort = 1001
*.host3.app[2].typename = "UdpBasicApp"
*.host3.app[2].destAddresses = "host14"
*.host3.app[2].source.packetNameFormat = "%M-%m-%c"
*.host3.app[2].source.displayStringTextFormat = "sent %p pk (%l)"
*.host3.app[2].messageLength = 22B
*.host3.app[2].sendInterval = 1ms
*.host3.app[2].startTime = 2ms
*.host3.app[2].stopTime = 22ms
*.host3.app[2].display-name = "type2_9"
*.host3.app[2].destPort = 1000
*.host3.app[3].typename = "UdpBasicApp"
*.host3.app[3].destAddresses = "host14"
*.host3.app[3].source.packetNameFormat = "%M-%m-%c"
*.host3.app[3].source.displayStringTextFormat = "sent %p pk (%l)"
*.host3.app[3].messageLength = 22B
*.host3.app[3].sendInterval = 1ms
*.host3.app[3].startTime = 44ms
*.host3.app[3].stopTime = 63ms
*.host3.app[3].display-name = "type2_9"
*.host3.app[3].destPort = 1000
*.host3.app[4].typename = "UdpBasicApp"
*.host3.app[4].destAddresses = "host14"
*.host3.app[4].source.packetNameFormat = "%M-%m-%c"
*.host3.app[4].source.displayStringTextFormat = "sent %p pk (%l)"
*.host3.app[4].messageLength = 22B
*.host3.app[4].sendInterval = 1ms
*.host3.app[4].startTime = 65ms
*.host3.app[4].stopTime = 73ms
*.host3.app[4].display-name = "type2_9"
*.host3.app[4].destPort = 1000
*.host3.app[5].typename = "UdpBasicApp"
*.host3.app[5].destAddresses = "host14"
*.host3.app[5].source.packetNameFormat = "%M-%m-%c"
*.host3.app[5].source.displayStringTextFormat = "sent %p pk (%l)"
*.host3.app[5].messageLength = 22B
*.host3.app[5].sendInterval = 1ms
*.host3.app[5].startTime = 79ms
*.host3.app[5].stopTime = 88ms
*.host3.app[5].display-name = "type2_9"
*.host3.app[5].destPort = 1000
*.host3.app[6].typename = "UdpBasicApp"
*.host3.app[6].destAddresses = "host14"
*.host3.app[6].source.packetNameFormat = "%M-%m-%c"
*.host3.app[6].source.displayStringTextFormat = "sent %p pk (%l)"
*.host3.app[6].messageLength = 22B
*.host3.app[6].sendInterval = 1ms
*.host3.app[6].startTime = 98ms
*.host3.app[6].stopTime = 100ms
*.host3.app[6].display-name = "type2_9"
*.host3.app[6].destPort = 1000
*.host3.app[7].typename = "UdpSinkApp"
*.host3.app[7].io.localPort = 1002
*.host3.app[8].typename = "UdpBasicApp"
*.host3.app[8].destAddresses = "host16"
*.host3.app[8].source.packetNameFormat = "%M-%m-%c"
*.host3.app[8].source.displayStringTextFormat = "sent %p pk (%l)"
*.host3.app[8].messageLength = 19B
*.host3.app[8].sendInterval = 1ms
*.host3.app[8].startTime = 4ms
*.host3.app[8].stopTime = 9ms
*.host3.app[8].display-name = "type2_23"
*.host3.app[8].destPort = 1001
*.host3.app[9].typename = "UdpBasicApp"
*.host3.app[9].destAddresses = "host16"
*.host3.app[9].source.packetNameFormat = "%M-%m-%c"
*.host3.app[9].source.displayStringTextFormat = "sent %p pk (%l)"
*.host3.app[9].messageLength = 19B
*.host3.app[9].sendInterval = 1ms
*.host3.app[9].startTime = 10ms
*.host3.app[9].stopTime = 13ms
*.host3.app[9].display-name = "type2_23"
*.host3.app[9].destPort = 1001
*.host3.app[10].typename = "UdpBasicApp"
*.host3.app[10].destAddresses = "host16"
*.host3.app[10].source.packetNameFormat = "%M-%m-%c"
*.host3.app[10].source.displayStringTextFormat = "sent %p pk (%l)"
*.host3.app[10].messageLength = 19B
*.host3.app[10].sendInterval = 1ms
*.host3.app[10].startTime = 36ms
*.host3.app[10].stopTime = 43ms
*.host3.app[10].display-name = "type2_23"
*.host3.app[10].destPort = 1001
*.host3.app[11].typename = "UdpBasicApp"
*.host3.app[11].destAddresses = "host16"
*.host3.app[11].source.packetNameFormat = "%M-%m-%c"
*.host3.app[11].source.displayStringTextFormat = "sent %p pk (%l)"
*.host3.app[11].messageLength = 19B
*.host3.app[11].sendInterval = 1ms
*.host3.app[11].startTime = 46ms
*.host3.app[11].stopTime = 47ms
*.host3.app[11].display-name = "type2_23"
*.host3.app[11].destPort = 1001
*.host3.app[12].typename = "UdpBasicApp"
*.host3.app[12].destAddresses = "host16"
*.host3.app[12].source.packetNameFormat = "%M-%m-%c"
*.host3.app[12].source.displayStringTextFormat = "sent %p pk (%l)"
*.host3.app[12].messageLength = 19B
*.host3.app[12].sendInterval = 1ms
*.host3.app[12].startTime = 48ms
*.host3.app[12].stopTime = 59ms
*.host3.app[12].display-name = "type2_23"
*.host3.app[12].destPort = 1001
*.host3.app[13].typename = "UdpBasicApp"
*.host3.app[13].destAddresses = "host16"
*.host3.app[13].source.packetNameFormat = "%M-%m-%c"
*.host3.app[13].source.displayStringTextFormat = "sent %p pk (%l)"
*.host3.app[13].messageLength = 19B
*.host3.app[13].sendInterval = 1ms
*.host3.app[13].startTime = 66ms
*.host3.app[13].stopTime = 76ms
*.host3.app[13].display-name = "type2_23"
*.host3.app[13].destPort = 1001
*.host3.app[14].typename = "UdpBasicApp"
*.host3.app[14].destAddresses = "host16"
*.host3.app[14].source.packetNameFormat = "%M-%m-%c"
*.host3.app[14].source.displayStringTextFormat = "sent %p pk (%l)"
*.host3.app[14].messageLength = 19B
*.host3.app[14].sendInterval = 1ms
*.host3.app[14].startTime = 90ms
*.host3.app[14].stopTime = 91ms
*.host3.app[14].display-name = "type2_23"
*.host3.app[14].destPort = 1001
*.host3.app[15].typename = "UdpBasicApp"
*.host3.app[15].destAddresses = "host16"
*.host3.app[15].source.packetNameFormat = "%M-%m-%c"
*.host3.app[15].source.displayStringTextFormat = "sent %p pk (%l)"
*.host3.app[15].messageLength = 19B
*.host3.app[15].sendInterval = 1ms
*.host3.app[15].startTime = 94ms
*.host3.app[15].stopTime = 100ms
*.host3.app[15].display-name = "type2_23"
*.host3.app[15].destPort = 1001
*.host4.numApps = 15
*.host4.app[0].typename = "UdpSinkApp"
*.host4.app[0].io.localPort = 1000
*.host4.app[1].typename = "UdpBasicApp"
*.host4.app[1].destAddresses = "host14"
*.host4.app[1].source.packetNameFormat = "%M-%m-%c"
*.host4.app[1].source.displayStringTextFormat = "sent %p pk (%l)"
*.host4.app[1].messageLength = 22B
*.host4.app[1].sendInterval = 1ms
*.host4.app[1].startTime = 1ms
*.host4.app[1].stopTime = 4ms
*.host4.app[1].display-name = "type2_15"
*.host4.app[1].destPort = 1001
*.host4.app[2].typename = "UdpBasicApp"
*.host4.app[2].destAddresses = "host14"
*.host4.app[2].source.packetNameFormat = "%M-%m-%c"
*.host4.app[2].source.displayStringTextFormat = "sent %p pk (%l)"
*.host4.app[2].messageLength = 22B
*.host4.app[2].sendInterval = 1ms
*.host4.app[2].startTime = 10ms
*.host4.app[2].stopTime = 14ms
*.host4.app[2].display-name = "type2_15"
*.host4.app[2].destPort = 1001
*.host4.app[3].typename = "UdpBasicApp"
*.host4.app[3].destAddresses = "host14"
*.host4.app[3].source.packetNameFormat = "%M-%m-%c"
*.host4.app[3].source.displayStringTextFormat = "sent %p pk (%l)"
*.host4.app[3].messageLength = 22B
*.host4.app[3].sendInterval = 1ms
*.host4.app[3].startTime = 15ms
*.host4.app[3].stopTime = 25ms
*.host4.app[3].display-name = "type2_15"
*.host4.app[3].destPort = 1001
*.host4.app[4].typename = "UdpBasicApp"
*.host4.app[4].destAddresses = "host14"
*.host4.app[4].source.packetNameFormat = "%M-%m-%c"
*.host4.app[4].source.displayStringTextFormat = "sent %p pk (%l)"
*.host4.app[4].messageLength = 22B
*.host4.app[4].sendInterval = 1ms
*.host4.app[4].startTime = 30ms
*.host4.app[4].stopTime = 49ms
*.host4.app[4].display-name = "type2_15"
*.host4.app[4].destPort = 1001
*.host4.app[5].typename = "UdpBasicApp"
*.host4.app[5].destAddresses = "host14"
*.host4.app[5].source.packetNameFormat = "%M-%m-%c"
*.host4.app[5].source.displayStringTextFormat = "sent %p pk (%l)"
*.host4.app[5].messageLength = 22B
*.host4.app[5].sendInterval = 1ms
*.host4.app[5].startTime = 55ms
*.host4.app[5].stopTime = 68ms
*.host4.app[5].display-name = "type2_15"
*.host4.app[5].destPort = 1001
*.host4.app[6].typename = "UdpBasicApp"
*.host4.app[6].destAddresses = "host14"
*.host4.app[6].source.packetNameFormat = "%M-%m-%c"
*.host4.app[6].source.displayStringTextFormat = "sent %p pk (%l)"
*.host4.app[6].messageLength = 22B
*.host4.app[6].sendInterval = 1ms
*.host4.app[6].startTime = 77ms
*.host4.app[6].stopTime = 98ms
*.host4.app[6].display-name = "type2_15"
*.host4.app[6].destPort = 1001
*.host4.app[7].typename = "UdpBasicApp"
*.host4.app[7].destAddresses = "host1"
*.host4.app[7].source.packetNameFormat = "%M-%m-%c"
*.host4.app[7].source.displayStringTextFormat = "sent %p pk (%l)"
*.host4.app[7].messageLength = 13B
*.host4.app[7].sendInterval = 1ms
*.host4.app[7].startTime = 2ms
*.host4.app[7].stopTime = 5ms
*.host4.app[7].display-name = "type2_17"
*.host4.app[7].destPort = 1001
*.host4.app[8].typename = "UdpBasicApp"
*.host4.app[8].destAddresses = "host1"
*.host4.app[8].source.packetNameFormat = "%M-%m-%c"
*.host4.app[8].source.displayStringTextFormat = "sent %p pk (%l)"
*.host4.app[8].messageLength = 13B
*.host4.app[8].sendInterval = 1ms
*.host4.app[8].startTime = 7ms
*.host4.app[8].stopTime = 15ms
*.host4.app[8].display-name = "type2_17"
*.host4.app[8].destPort = 1001
*.host4.app[9].typename = "UdpBasicApp"
*.host4.app[9].destAddresses = "host1"
*.host4.app[9].source.packetNameFormat = "%M-%m-%c"
*.host4.app[9].source.displayStringTextFormat = "sent %p pk (%l)"
*.host4.app[9].messageLength = 13B
*.host4.app[9].sendInterval = 1ms
*.host4.app[9].startTime = 21ms
*.host4.app[9].stopTime = 32ms
*.host4.app[9].display-name = "type2_17"
*.host4.app[9].destPort = 1001
*.host4.app[10].typename = "UdpBasicApp"
*.host4.app[10].destAddresses = "host1"
*.host4.app[10].source.packetNameFormat = "%M-%m-%c"
*.host4.app[10].source.displayStringTextFormat = "sent %p pk (%l)"
*.host4.app[10].messageLength = 13B
*.host4.app[10].sendInterval = 1ms
*.host4.app[10].startTime = 36ms
*.host4.app[10].stopTime = 53ms
*.host4.app[10].display-name = "type2_17"
*.host4.app[10].destPort = 1001
*.host4.app[11].typename = "UdpBasicApp"
*.host4.app[11].destAddresses = "host1"