[General]
network = TSN_multipath
sim-time-limit = 10ms
*.macForwardingTableConfigurator.typename = ""
*.*.hasStreamRedundancy = true
*.*.bridging.streamRelay.typename = "StreamRelayLayer"
*.*.bridging.streamCoder.typename = "StreamCoderLayer"
*.streamRedundancyConfigurator.typename = "StreamRedundancyConfigurator"
*.host0.eth[0].bitrate = 1000Mbps
*.switch0.eth[0].bitrate = 1000Mbps
*.switch0.eth[1].bitrate = 1200Mbps
*.switch0.eth[2].bitrate = 1700Mbps
*.switch0.eth[3].bitrate = 1200Mbps
*.switch0.eth[4].bitrate = 2000Mbps
*.switch0.eth[5].bitrate = 1900Mbps
*.switch0.eth[6].bitrate = 2300Mbps
*.switch0.eth[7].bitrate = 1800Mbps
*.switch0.eth[8].bitrate = 2100Mbps
*.switch0.eth[9].bitrate = 2300Mbps
*.switch0.eth[10].bitrate = 1900Mbps
*.host1.eth[0].bitrate = 1000Mbps
*.switch1.eth[0].bitrate = 1000Mbps
*.switch1.eth[1].bitrate = 1200Mbps
*.switch1.eth[2].bitrate = 2100Mbps
*.switch1.eth[3].bitrate = 2300Mbps
*.switch1.eth[4].bitrate = 1900Mbps
*.switch1.eth[5].bitrate = 1500Mbps
*.switch1.eth[6].bitrate = 1200Mbps
*.switch1.eth[7].bitrate = 1400Mbps
*.switch1.eth[8].bitrate = 1600Mbps
*.switch1.eth[9].bitrate = 2400Mbps
*.switch1.eth[10].bitrate = 2400Mbps
*.switch1.eth[11].bitrate = 2100Mbps
*.host2.eth[0].bitrate = 1000Mbps
*.switch2.eth[0].bitrate = 1000Mbps
*.switch2.eth[1].bitrate = 2300Mbps
*.switch2.eth[2].bitrate = 2400Mbps
*.switch2.eth[3].bitrate = 2200Mbps
*.switch2.eth[4].bitrate = 1400Mbps
*.switch2.eth[5].bitrate = 2000Mbps
*.switch2.eth[6].bitrate = 1300Mbps
*.host3.eth[0].bitrate = 1000Mbps
*.switch3.eth[0].bitrate = 1000Mbps
*.switch3.eth[1].bitrate = 1700Mbps
*.switch3.eth[2].bitrate = 1900Mbps
*.switch3.eth[3].bitrate = 2100Mbps
*.switch3.eth[4].bitrate = 2400Mbps
*.switch3.eth[5].bitrate = 2300Mbps
*.host4.eth[0].bitrate = 1000Mbps
*.switch4.eth[0].bitrate = 1000Mbps
*.switch4.eth[1].bitrate = 1200Mbps
*.switch4.eth[2].bitrate = 1500Mbps
*.switch4.eth[3].bitrate = 2200Mbps
*.switch4.eth[4].bitrate = 2000Mbps
*.switch4.eth[5].bitrate = 1900Mbps
*.host5.eth[0].bitrate = 1000Mbps
*.switch5.eth[0].bitrate = 1000Mbps
*.switch5.eth[1].bitrate = 2000Mbps
*.switch5.eth[2].bitrate = 2100Mbps
*.switch5.eth[3].bitrate = 2000Mbps
*.switch5.eth[4].bitrate = 1500Mbps
*.host6.eth[0].bitrate = 1000Mbps
*.switch6.eth[0].bitrate = 1000Mbps
*.switch6.eth[1].bitrate = 1900Mbps
*.switch6.eth[2].bitrate = 1200Mbps
*.switch6.eth[3].bitrate = 2400Mbps
*.switch6.eth[4].bitrate = 2300Mbps
*.switch6.eth[5].bitrate = 2100Mbps
*.switch6.eth[6].bitrate = 2300Mbps
*.switch6.eth[7].bitrate = 1400Mbps
*.host7.eth[0].bitrate = 1000Mbps
*.switch7.eth[0].bitrate = 1000Mbps
*.switch7.eth[1].bitrate = 2300Mbps
*.switch7.eth[2].bitrate = 1400Mbps
*.switch7.eth[3].bitrate = 1500Mbps
*.switch7.eth[4].bitrate = 2100Mbps
*.switch7.eth[5].bitrate = 1900Mbps
*.switch7.eth[6].bitrate = 2000Mbps
*.switch7.eth[7].bitrate = 2300Mbps
*.switch7.eth[8].bitrate = 2300Mbps
*.switch7.eth[9].bitrate = 2100Mbps
*.switch7.eth[10].bitrate = 2200Mbps
*.host8.eth[0].bitrate = 1000Mbps
*.switch8.eth[0].bitrate = 1000Mbps
*.switch8.eth[1].bitrate = 1600Mbps
*.switch8.eth[2].bitrate = 1400Mbps
*.switch8.eth[3].bitrate = 2100Mbps
*.switch8.eth[4].bitrate = 1900Mbps
*.switch8.eth[5].bitrate = 2200Mbps
*.host9.eth[0].bitrate = 1000Mbps
*.switch9.eth[0].bitrate = 1000Mbps
*.switch9.eth[1].bitrate = 1800Mbps
*.switch9.eth[2].bitrate = 2400Mbps
*.switch9.eth[3].bitrate = 2100Mbps
*.switch9.eth[4].bitrate = 1300Mbps
*.switch9.eth[5].bitrate = 1400Mbps
*.host0.numApps = 25
*.host0.app[0].typename = "UdpSinkApp"
*.host0.app[0].io.localPort = 1000
*.host0.app[1].typename = "UdpBasicApp"
*.host0.app[1].destAddresses = "host2"
*.host0.app[1].source.packetNameFormat = "%M-%m-%c"
*.host0.app[1].source.displayStringTextFormat = "sent %p pk (%l)"
*.host0.app[1].messageLength = 14B
*.host0.app[1].sendInterval = 1ms
*.host0.app[1].startTime = 2300us
*.host0.app[1].stopTime = 2500us
*.host0.app[1].display-name = "type2_3"
*.host0.app[1].destPort = 1000
*.host0.app[2].typename = "UdpBasicApp"
*.host0.app[2].destAddresses = "host2"
*.host0.app[2].source.packetNameFormat = "%M-%m-%c"
*.host0.app[2].source.displayStringTextFormat = "sent %p pk (%l)"
*.host0.app[2].messageLength = 14B
*.host0.app[2].sendInterval = 1ms
*.host0.app[2].startTime = 4600us
*.host0.app[2].stopTime = 5100us
*.host0.app[2].display-name = "type2_3"
*.host0.app[2].destPort = 1000
*.host0.app[3].typename = "UdpBasicApp"
*.host0.app[3].destAddresses = "host2"
*.host0.app[3].source.packetNameFormat = "%M-%m-%c"
*.host0.app[3].source.displayStringTextFormat = "sent %p pk (%l)"
*.host0.app[3].messageLength = 14B
*.host0.app[3].sendInterval = 1ms
*.host0.app[3].startTime = 5400us
*.host0.app[3].stopTime = 5500us
*.host0.app[3].display-name = "type2_3"
*.host0.app[3].destPort = 1000
*.host0.app[4].typename = "UdpBasicApp"
*.host0.app[4].destAddresses = "host2"
*.host0.app[4].source.packetNameFormat = "%M-%m-%c"
*.host0.app[4].source.displayStringTextFormat = "sent %p pk (%l)"
*.host0.app[4].messageLength = 14B
*.host0.app[4].sendInterval = 1ms
*.host0.app[4].startTime = 6100us
*.host0.app[4].stopTime = 6900us
*.host0.app[4].display-name = "type2_3"
*.host0.app[4].destPort = 1000
*.host0.app[5].typename = "UdpBasicApp"
*.host0.app[5].destAddresses = "host2"
*.host0.app[5].source.packetNameFormat = "%M-%m-%c"
*.host0.app[5].source.displayStringTextFormat = "sent %p pk (%l)"
*.host0.app[5].messageLength = 14B
*.host0.app[5].sendInterval = 1ms
*.host0.app[5].startTime = 7700us
*.host0.app[5].stopTime = 8500us
*.host0.app[5].display-name = "type2_3"
*.host0.app[5].destPort = 1000
*.host0.app[6].typename = "UdpBasicApp"
*.host0.app[6].destAddresses = "host2"
*.host0.app[6].source.packetNameFormat = "%M-%m-%c"
*.host0.app[6].source.displayStringTextFormat = "sent %p pk (%l)"
*.host0.app[6].messageLength = 14B
*.host0.app[6].sendInterval = 1ms
*.host0.app[6].startTime = 8700us
*.host0.app[6].stopTime = 8800us
*.host0.app[6].display-name = "type2_3"
*.host0.app[6].destPort = 1000
*.host0.app[7].typename = "UdpBasicApp"
*.host0.app[7].destAddresses = "host2"
*.host0.app[7].source.packetNameFormat = "%M-%m-%c"
*.host0.app[7].source.displayStringTextFormat = "sent %p pk (%l)"
*.host0.app[7].messageLength = 14B
*.host0.app[7].sendInterval = 1ms
*.host0.app[7].startTime = 9300us
*.host0.app[7].stopTime = 10000us
*.host0.app[7].display-name = "type2_3"
*.host0.app[7].destPort = 1000
*.host0.app[8].typename = "UdpBasicApp"
*.host0.app[8].destAddresses = "host7"
*.host0.app[8].source.packetNameFormat = "%M-%m-%c"
*.host0.app[8].source.displayStringTextFormat = "sent %p pk (%l)"
*.host0.app[8].messageLength = 15B
*.host0.app[8].sendInterval = 1ms
*.host0.app[8].startTime = 800us
*.host0.app[8].stopTime = 1600us
*.host0.app[8].display-name = "type2_4"
*.host0.app[8].destPort = 1001
*.host0.app[9].typename = "UdpBasicApp"
*.host0.app[9].destAddresses = "host7"
*.host0.app[9].source.packetNameFormat = "%M-%m-%c"
*.host0.app[9].source.displayStringTextFormat = "sent %p pk (%l)"
*.host0.app[9].messageLength = 15B
*.host0.app[9].sendInterval = 1ms
*.host0.app[9].startTime = 2100us
*.host0.app[9].stopTime = 2200us
*.host0.app[9].display-name = "type2_4"
*.host0.app[9].destPort = 1001
*.host0.app[10].typename = "UdpBasicApp"
*.host0.app[10].destAddresses = "host7"
*.host0.app[10].source.packetNameFormat = "%M-%m-%c"
*.host0.app[10].source.displayStringTextFormat = "sent %p pk (%l)"
*.host0.app[10].messageLength = 15B
*.host0.app[10].sendInterval = 1ms
*.host0.app[10].startTime = 2300us
*.host0.app[10].stopTime = 2900us
*.host0.app[10].display-name = "type2_4"
*.host0.app[10].destPort = 1001
*.host0.app[11].typename = "UdpBasicApp"
*.host0.app[11].destAddresses = "host7"
*.host0.app[11].source.packetNameFormat = "%M-%m-%c"
*.host0.app[11].source.displayStringTextFormat = "sent %p pk (%l)"
*.host0.app[11].messageLength = 15B
*.host0.app[11].sendInterval = 1ms
*.host0.app[11].startTime = 3200us
*.host0.app[11].stopTime = 4100us
*.host0.app[11].display-name = "type2_4"
*.host0.app[11].destPort = 1001
*.host0.app[12].typename = "UdpBasicApp"
*.host0.app[12].destAddresses = "host7"
*.host0.app[12].source.packetNameFormat = "%M-%m-%c"
*.host0.app[12].source.displayStringTextFormat = "sent %p pk (%l)"
*.host0.app[12].messageLength = 15B
*.host0.app[12].sendInterval = 1ms
*.host0.app[12].startTime = 5500us
*.host0.app[12].stopTime = 5600us
*.host0.app[12].display-name = "type2_4"
*.host0.app[12].destPort = 1001
*.host0.app[13].typename = "UdpBasicApp"
*.host0.app[13].destAddresses = "host7"
*.host0.app[13].source.packetNameFormat = "%M-%m-%c"
*.host0.app[13].source.displayStringTextFormat = "sent %p pk (%l)"
*.host0.app[13].messageLength = 15B
*.host0.app[13].sendInterval = 1ms
*.host0.app[13].startTime = 5900us
*.host0.app[13].stopTime = 6200us
*.host0.app[13].display-name = "type2_4"
*.host0.app[13].destPort = 1001
*.host0.app[14].typename = "UdpBasicApp"
*.host0.app[14].destAddresses = "host7"
*.host0.app[14].source.packetNameFormat = "%M-%m-%c"
*.host0.app[14].source.displayStringTextFormat = "sent %p pk (%l)"
*.host0.app[14].messageLength = 15B
*.host0.app[14].sendInterval = 1ms
*.host0.app[14].startTime = 7900us
*.host0.app[14].stopTime = 8800us
*.host0.app[14].display-name = "type2_4"
*.host0.app[14].destPort = 1001
*.host0.app[15].typename = "UdpSinkApp"
*.host0.app[15].io.localPort = 1001
*.host0.app[16].typename = "UdpBasicApp"
*.host0.app[16].destAddresses = "host6"
*.host0.app[16].source.packetNameFormat = "%M-%m-%c"
*.host0.app[16].source.displayStringTextFormat = "sent %p pk (%l)"
*.host0.app[16].messageLength = 19B
*.host0.app[16].sendInterval = 1ms
*.host0.app[16].startTime = 1800us
*.host0.app[16].stopTime = 4500us
*.host0.app[16].display-name = "type2_7"
*.host0.app[16].destPort = 1001
*.host0.app[17].typename = "UdpBasicApp"
*.host0.app[17].destAddresses = "host6"
*.host0.app[17].source.packetNameFormat = "%M-%m-%c"
*.host0.app[17].source.displayStringTextFormat = "sent %p pk (%l)"
*.host0.app[17].messageLength = 19B
*.host0.app[17].sendInterval = 1ms
*.host0.app[17].startTime = 4600us
*.host0.app[17].stopTime = 4800us
*.host0.app[17].display-name = "type2_7"
*.host0.app[17].destPort = 1001
*.host0.app[18].typename = "UdpBasicApp"
*.host0.app[18].destAddresses = "host6"
*.host0.app[18].source.packetNameFormat = "%M-%m-%c"
*.host0.app[18].source.displayStringTextFormat = "sent %p pk (%l)"
*.host0.app[18].messageLength = 19B
*.host0.app[18].sendInterval = 1ms
*.host0.app[18].startTime = 5600us
*.host0.app[18].stopTime = 6500us
*.host0.app[18].display-name = "type2_7"
*.host0.app[18].destPort = 1001
*.host0.app[19].typename = "UdpBasicApp"
*.host0.app[19].destAddresses = "host6"
*.host0.app[19].source.packetNameFormat = "%M-%m-%c"
*.host0.app[19].source.displayStringTextFormat = "sent %p pk (%l)"
*.host0.app[19].messageLength = 19B
*.host0.app[19].sendInterval = 1ms
*.host0.app[19].startTime = 6700us
*.host0.app[19].stopTime = 7400us
*.host0.app[19].display-name = "type2_7"
*.host0.app[19].destPort = 1001
*.host0.app[20].typename = "UdpBasicApp"
*.host0.app[20].destAddresses = "host6"
*.host0.app[20].source.packetNameFormat = "%M-%m-%c"
*.host0.app[20].source.displayStringTextFormat = "sent %p pk (%l)"
*.host0.app[20].messageLength = 19B
*.host0.app[20].sendInterval = 1ms
*.host0.app[20].startTime = 7500us
*.host0.app[20].stopTime = 7700us
*.host0.app[20].display-name = "type2_7"
*.host0.app[20].destPort = 1001
*.host0.app[21].typename = "UdpBasicApp"
*.host0.app[21].destAddresses = "host6"
*.host0.app[21].source.packetNameFormat = "%M-%m-%c"
*.host0.app[21].source.displayStringTextFormat = "sent %p pk (%l)"
*.host0.app[21].messageLength = 19B
*.host0.app[21].sendInterval = 1ms
*.host0.app[21].startTime = 8000us
*.host0.app[21].stopTime = 8200us
*.host0.app[21].display-name = "type2_7"
*.host0.app[21].destPort = 1001
*.host0.app[22].typename = "UdpBasicApp"
*.host0.app[22].destAddresses = "host6"
*.host0.app[22].source.packetNameFormat = "%M-%m-%c"
*.host0.app[22].source.displayStringTextFormat = "sent %p pk (%l)"
*.host0.app[22].messageLength = 19B
*.host0.app[22].sendInterval = 1ms
*.host0.app[22].startTime = 8300us
*.host0.app[22].stopTime = 8900us
*.host0.app[22].display-name = "type2_7"
*.host0.app[22].destPort = 1001
*.host0.app[23].typename = "UdpBasicApp"
*.host0.app[23].destAddresses = "host6"
*.host0.app[23].source.packetNameFormat = "%M-%m-%c"
*.host0.app[23].source.displayStringTextFormat = "sent %p pk (%l)"
*.host0.app[23].messageLength = 19B
*.host0.app[23].sendInterval = 1ms
*.host0.app[23].startTime = 9000us
*.host0.app[23].stopTime = 10000us
*.host0.app[23].display-name = "type2_7"
*.host0.app[23].destPort = 1001
*.host0.app[24].typename = "UdpSinkApp"
*.host0.app[24].io.localPort = 1002
*.host1.numApps = 8
*.host1.app[0].typename = "UdpSourceApp"
*.host1.app[0].io.destAddress = "host8"
*.host1.app[0].source.packetNameFormat = "%M-%m-%c"
*.host1.app[0].source.displayStringTextFormat = "sent %p pk (%l)"
*.host1.app[0].source.packetLength = 21B
*.host1.app[0].source.productionInterval = 1ms
*.host1.app[0].display-name = "type1_0"
*.host1.app[0].io.destPort = 1000
*.host1.app[1].typename = "UdpSinkApp"
*.host1.app[1].io.localPort = 1000
*.host1.app[2].typename = "UdpBasicApp"
*.host1.app[2].destAddresses = "host0"
*.host1.app[2].source.packetNameFormat = "%M-%m-%c"
*.host1.app[2].source.displayStringTextFormat = "sent %p pk (%l)"
*.host1.app[2].messageLength = 12B
*.host1.app[2].sendInterval = 1ms
*.host1.app[2].startTime = 300us
*.host1.app[2].stopTime = 500us
*.host1.app[2].display-name = "type2_8"
*.host1.app[2].destPort = 1002
*.host1.app[3].typename = "UdpBasicApp"
*.host1.app[3].destAddresses = "host0"
*.host1.app[3].source.packetNameFormat = "%M-%m-%c"
*.host1.app[3].source.displayStringTextFormat = "sent %p pk (%l)"
*.host1.app[3].messageLength = 12B
*.host1.app[3].sendInterval = 1ms
*.host1.app[3].startTime = 1300us
*.host1.app[3].stopTime = 3100us
*.host1.app[3].display-name = "type2_8"
*.host1.app[3].destPort = 1002
*.host1.app[4].typename = "UdpBasicApp"
*.host1.app[4].destAddresses = "host0"
*.host1.app[4].source.packetNameFormat = "%M-%m-%c"
*.host1.app[4].source.displayStringTextFormat = "sent %p pk (%l)"
*.host1.app[4].messageLength = 12B
*.host1.app[4].sendInterval = 1ms
*.host1.app[4].startTime = 3300us
*.host1.app[4].stopTime = 5300us
*.host1.app[4].display-name = "type2_8"
*.host1.app[4].destPort = 1002
*.host1.app[5].typename = "UdpBasicApp"
*.host1.app[5].destAddresses = "host0"
*.host1.app[5].source.packetNameFormat = "%M-%m-%c"
*.host1.app[5].source.displayStringTextFormat = "sent %p pk (%l)"
*.host1.app[5].messageLength = 12B
*.host1.app[5].sendInterval = 1ms
*.host1.app[5].startTime = 5800us
*.host1.app[5].stopTime = 6100us
*.host1.app[5].display-name = "type2_8"
*.host1.app[5].destPort = 1002
*.host1.app[6].typename = "UdpBasicApp"
*.host1.app[6].destAddresses = "host0"
*.host1.app[6].source.packetNameFormat = "%M-%m-%c"
*.host1.app[6].source.displayStringTextFormat = "sent %p pk (%l)"
*.host1.app[6].messageLength = 12B
*.host1.app[6].sendInterval = 1ms
*.host1.app[6].startTime = 6300us
*.host1.app[6].stopTime = 7700us
*.host1.app[6].display-name = "type2_8"
*.host1.app[6].destPort = 1002
*.host1.app[7].typename = "UdpBasicApp"
*.host1.app[7].destAddresses = "host0"
*.host1.app[7].source.packetNameFormat = "%M-%m-%c"
*.host1.app[7].source.displayStringTextFormat = "sent %p pk (%l)"
*.host1.app[7].messageLength = 12B
*.host1.app[7].sendInterval = 1ms
*.host1.app[7].startTime = 8900us
*.host1.app[7].stopTime = 10000us
*.host1.app[7].display-name = "type2_8"
*.host1.app[7].destPort = 1002
*.host2.numApps = 1
*.host2.app[0].typename = "UdpSinkApp"
*.host2.app[0].io.localPort = 1000
*.host3.numApps = 0
*.host4.numApps = 8
*.host4.app[0].typename = "UdpSinkApp"
*.host4.app[0].io.localPort = 1000
*.host4.app[1].typename = "UdpBasicApp"
*.host4.app[1].destAddresses = "host5"
*.host4.app[1].source.packetNameFormat = "%M-%m-%c"
*.host4.app[1].source.displayStringTextFormat = "sent %p pk (%l)"
*.host4.app[1].messageLength = 21B
*.host4.app[1].sendInterval = 1ms
*.host4.app[1].startTime = 6200us
*.host4.app[1].stopTime = 8400us
*.host4.app[1].display-name = "type2_1"
*.host4.app[1].destPort = 1000
*.host4.app[2].typename = "UdpBasicApp"
*.host4.app[2].destAddresses = "host5"
*.host4.app[2].source.packetNameFormat = "%M-%m-%c"
*.host4.app[2].source.displayStringTextFormat = "sent %p pk (%l)"
*.host4.app[2].messageLength = 21B
*.host4.app[2].sendInterval = 1ms
*.host4.app[2].startTime = 9300us
*.host4.app[2].stopTime = 10000us
*.host4.app[2].display-name = "type2_1"
*.host4.app[2].destPort = 1000
*.host4.app[3].typename = "UdpBasicApp"
*.host4.app[3].destAddresses = "host7"
*.host4.app[3].source.packetNameFormat = "%M-%m-%c"
*.host4.app[3].source.displayStringTextFormat = "sent %p pk (%l)"
*.host4.app[3].messageLength = 22B
*.host4.app[3].sendInterval = 1ms
*.host4.app[3].startTime = 300us
*.host4.app[3].stopTime = 500us
*.host4.app[3].display-name = "type2_2"
*.host4.app[3].destPort = 1000
*.host4.app[4].typename = "UdpBasicApp"
*.host4.app[4].destAddresses = "host7"
*.host4.app[4].source.packetNameFormat = "%M-%m-%c"
*.host4.app[4].source.displayStringTextFormat = "sent %p pk (%l)"
*.host4.app[4].messageLength = 22B
*.host4.app[4].sendInterval = 1ms
*.host4.app[4].startTime = 900us
*.host4.app[4].stopTime = 1300us
*.host4.app[4].display-name = "type2_2"
*.host4.app[4].destPort = 1000
*.host4.app[5].typename = "UdpBasicApp"
*.host4.app[5].destAddresses = "host7"
*.host4.app[5].source.packetNameFormat = "%M-%m-%c"
*.host4.app[5].source.displayStringTextFormat = "sent %p pk (%l)"
*.host4.app[5].messageLength = 22B
*.host4.app[5].sendInterval = 1ms
*.host4.app[5].startTime = 2100us
*.host4.app[5].stopTime = 5400us
*.host4.app[5].display-name = "type2_2"
*.host4.app[5].destPort = 1000
*.host4.app[6].typename = "UdpBasicApp"
*.host4.app[6].destAddresses = "host7"
*.host4.app[6].source.packetNameFormat = "%M-%m-%c"
*.host4.app[6].source.displayStringTextFormat = "sent %p pk (%l)"
*.host4.app[6].messageLength = 22B
*.host4.app[6].sendInterval = 1ms
*.host4.app[6].startTime = 5700us
*.host4.app[6].stopTime = 5900us
*.host4.app[6].display-name = "type2_2"
*.host4.app[6].destPort = 1000
*.host4.app[7].typename = "UdpBasicApp"
*.host4.app[7].destAddresses = "host7"
*.host4.app[7].source.packetNameFormat = "%M-%m-%c"
*.host4.app[7].source.displayStringTextFormat = "sent %p pk (%l)"
*.host4.app[7].messageLength = 22B
*.host4.app[7].sendInterval = 1ms
*.host4.app[7].startTime = 7300us
*.host4.app[7].stopTime = 9100us
*.host4.app[7].display-name = "type2_2"
*.host4.app[7].destPort = 1000
*.host5.numApps = 1
*.host5.app[0].typename = "UdpSinkApp"
*.host5.app[0].io.localPort = 1000
*.host6.numApps = 3
*.host6.app[0].typename = "UdpSourceApp"
*.host6.app[0].io.destAddress = "host1"
*.host6.app[0].source.packetNameFormat = "%M-%m-%c"
*.host6.app[0].source.displayStringTextFormat = "sent %p pk (%l)"
*.host6.app[0].source.packetLength = 13B
*.host6.app[0].source.productionInterval = 1ms
*.host6.app[0].display-name = "type1_1"
*.host6.app[0].io.destPort = 1000
*.host6.app[1].typename = "UdpSinkApp"
*.host6.app[1].io.localPort = 1000
*.host6.app[2].typename = "UdpSinkApp"
*.host6.app[2].io.localPort = 1001
*.host7.numApps = 2
*.host7.app[0].typename = "UdpSinkApp"
*.host7.app[0].io.localPort = 1000
*.host7.app[1].typename = "UdpSinkApp"
*.host7.app[1].io.localPort = 1001
*.host8.numApps = 13
*.host8.app[0].typename = "UdpSinkApp"
*.host8.app[0].io.localPort = 1000
*.host8.app[1].typename = "UdpBasicApp"
*.host8.app[1].destAddresses = "host0"
*.host8.app[1].source.packetNameFormat = "%M-%m-%c"
*.host8.app[1].source.displayStringTextFormat = "sent %p pk (%l)"
*.host8.app[1].messageLength = 21B
*.host8.app[1].sendInterval = 1ms
*.host8.app[1].startTime = 300us
*.host8.app[1].stopTime = 700us
*.host8.app[1].display-name = "type2_0"
*.host8.app[1].destPort = 1000
*.host8.app[2].typename = "UdpBasicApp"
*.host8.app[2].destAddresses = "host0"
*.host8.app[2].source.packetNameFormat = "%M-%m-%c"
*.host8.app[2].source.displayStringTextFormat = "sent %p pk (%l)"
*.host8.app[2].messageLength = 21B
*.host8.app[2].sendInterval = 1ms
*.host8.app[2].startTime = 1500us
*.host8.app[2].stopTime = 3000us
*.host8.app[2].display-name = "type2_0"
*.host8.app[2].destPort = 1000
*.host8.app[3].typename = "UdpBasicApp"
*.host8.app[3].destAddresses = "host0"
*.host8.app[3].source.packetNameFormat = "%M-%m-%c"
*.host8.app[3].source.displayStringTextFormat = "sent %p pk (%l)"
*.host8.app[3].messageLength = 21B
*.host8.app[3].sendInterval = 1ms
*.host8.app[3].startTime = 4100us
*.host8.app[3].stopTime = 6400us
*.host8.app[3].display-name = "type2_0"
*.host8.app[3].destPort = 1000
*.host8.app[4].typename = "UdpBasicApp"
*.host8.app[4].destAddresses = "host0"
*.host8.app[4].source.packetNameFormat = "%M-%m-%c"
*.host8.app[4].source.displayStringTextFormat = "sent %p pk (%l)"
*.host8.app[4].messageLength = 21B
*.host8.app[4].sendInterval = 1ms
*.host8.app[4].startTime = 6500us
*.host8.app[4].stopTime = 6900us
*.host8.app[4].display-name = "type2_0"
*.host8.app[4].destPort = 1000
*.host8.app[5].typename = "UdpBasicApp"
*.host8.app[5].destAddresses = "host0"
*.host8.app[5].source.packetNameFormat = "%M-%m-%c"
*.host8.app[5].source.displayStringTextFormat = "sent %p pk (%l)"
*.host8.app[5].messageLength = 21B
*.host8.app[5].sendInterval = 1ms
*.host8.app[5].startTime = 7000us
*.host8.app[5].stopTime = 7100us
*.host8.app[5].display-name = "type2_0"
*.host8.app[5].destPort = 1000
*.host8.app[6].typename = "UdpBasicApp"
*.host8.app[6].destAddresses = "host0"
*.host8.app[6].source.packetNameFormat = "%M-%m-%c"
*.host8.app[6].source.displayStringTextFormat = "sent %p pk (%l)"
*.host8.app[6].messageLength = 21B
*.host8.app[6].sendInterval = 1ms
*.host8.app[6].startTime = 8500us
*.host8.app[6].stopTime = 9300us
*.host8.app[6].display-name = "type2_0"
*.host8.app[6].destPort = 1000
*.host8.app[7].typename = "UdpBasicApp"
*.host8.app[7].destAddresses = "host6"
*.host8.app[7].source.packetNameFormat = "%M-%m-%c"
*.host8.app[7].source.displayStringTextFormat = "sent %p pk (%l)"
*.host8.app[7].messageLength = 12B
*.host8.app[7].sendInterval = 1ms
*.host8.app[7].startTime = 1500us
*.host8.app[7].stopTime = 1900us
*.host8.app[7].display-name = "type2_5"
*.host8.app[7].destPort = 1000
*.host8.app[8].typename = "UdpBasicApp"
*.host8.app[8].destAddresses = "host6"
*.host8.app[8].source.packetNameFormat = "%M-%m-%c"
*.host8.app[8].source.displayStringTextFormat = "sent %p pk (%l)"
*.host8.app[8].messageLength = 12B
*.host8.app[8].sendInterval = 1ms
*.host8.app[8].startTime = 2200us
*.host8.app[8].stopTime = 2800us
*.host8.app[8].display-name = "type2_5"
*.host8.app[8].destPort = 1000
*.host8.app[9].typename = "UdpBasicApp"
*.host8.app[9].destAddresses = "host6"
*.host8.app[9].source.packetNameFormat = "%M-%m-%c"
*.host8.app[9].source.displayStringTextFormat = "sent %p pk (%l)"
*.host8.app[9].messageLength = 12B
*.host8.app[9].sendInterval = 1ms
*.host8.app[9].startTime = 3900us
*.host8.app[9].stopTime = 4200us
*.host8.app[9].display-name = "type2_5"
*.host8.app[9].destPort = 1000
*.host8.app[10].typename = "UdpBasicApp"
*.host8.app[10].destAddresses = "host6"
*.host8.app[10].source.packetNameFormat = "%M-%m-%c"
*.host8.app[10].source.displayStringTextFormat = "sent %p pk (%l)"
*.host8.app[10].messageLength = 12B
*.host8.app[10].sendInterval = 1ms
*.host8.app[10].startTime = 4800us
*.host8.app[10].stopTime = 5200us
*.host8.app[10].display-name = "type2_5"
*.host8.app[10].destPort = 1000
*.host8.app[11].typename = "UdpBasicApp"
*.host8.app[11].destAddresses = "host6"
*.host8.app[11].source.packetNameFormat = "%M-%m-%c"
*.host8.app[11].source.displayStringTextFormat = "sent %p pk (%l)"
*.host8.app[11].messageLength = 12B
*.host8.app[11].sendInterval = 1ms
*.host8.app[11].startTime = 5800us
*.host8.app[11].stopTime = 8900us
*.host8.app[11].display-name = "type2_5"
*.host8.app[11].destPort = 1000
*.host8.app[12].typename = "UdpBasicApp"
*.host8.app[12].destAddresses = "host6"
*.host8.app[12].source.packetNameFormat = "%M-%m-%c"
*.host8.app[12].source.displayStringTextFormat = "sent %p pk (%l)"
*.host8.app[12].messageLength = 12B
*.host8.app[12].sendInterval = 1ms
*.host8.app[12].startTime = 9800us
*.host8.app[12].stopTime = 10000us
*.host8.app[12].display-name = "type2_5"
*.host8.app[12].destPort = 1000
*.host9.numApps = 8
*.host9.app[0].typename = "UdpSourceApp"
*.host9.app[0].io.destAddress = "host4"
*.host9.app[0].source.packetNameFormat = "%M-%m-%c"
*.host9.app[0].source.displayStringTextFormat = "sent %p pk (%l)"
*.host9.app[0].source.packetLength = 17B
*.host9.app[0].source.productionInterval = 1ms
*.host9.app[0].display-name = "type1_2"
*.host9.app[0].io.destPort = 1000
*.host9.app[1].typename = "UdpBasicApp"
*.host9.app[1].destAddresses = "host0"
*.host9.app[1].source.packetNameFormat = "%M-%m-%c"
*.host9.app[1].source.displayStringTextFormat = "sent %p pk (%l)"
*.host9.app[1].messageLength = 19B
*.host9.app[1].sendInterval = 1ms
*.host9.app[1].startTime = 2100us
*.host9.app[1].stopTime = 2300us
*.host9.app[1].display-name = "type2_6"
*.host9.app[1].destPort = 1001
*.host9.app[2].typename = "UdpBasicApp"
*.host9.app[2].destAddresses = "host0"
*.host9.app[2].source.packetNameFormat = "%M-%m-%c"
*.host9.app[2].source.displayStringTextFormat = "sent %p pk (%l)"
*.host9.app[2].messageLength = 19B
*.host9.app[2].sendInterval = 1ms
*.host9.app[2].startTime = 3900us
*.host9.app[2].stopTime = 4400us
*.host9.app[2].display-name = "type2_6"
*.host9.app[2].destPort = 1001
*.host9.app[3].typename = "UdpBasicApp"
*.host9.app[3].destAddresses = "host0"
*.host9.app[3].source.packetNameFormat = "%M-%m-%c"
*.host9.app[3].source.displayStringTextFormat = "sent %p pk (%l)"
*.host9.app[3].messageLength = 19B
*.host9.app[3].sendInterval = 1ms
*.host9.app[3].startTime = 4600us
*.host9.app[3].stopTime = 5000us
*.host9.app[3].display-name = "type2_6"
*.host9.app[3].destPort = 1001
*.host9.app[4].typename = "UdpBasicApp"
*.host9.app[4].destAddresses = "host0"
*.host9.app[4].source.packetNameFormat = "%M-%m-%c"
*.host9.app[4].source.displayStringTextFormat = "sent %p pk (%l)"
*.host9.app[4].messageLength = 19B
*.host9.app[4].sendInterval = 1ms
*.host9.app[4].startTime = 6000us
*.host9.app[4].stopTime = 6800us
*.host9.app[4].display-name = "type2_6"
*.host9.app[4].destPort = 1001
*.host9.app[5].typename = "UdpBasicApp"
*.host9.app[5].destAddresses = "host0"
*.host9.app[5].source.packetNameFormat = "%M-%m-%c"
*.host9.app[5].source.displayStringTextFormat = "sent %p pk (%l)"
*.host9.app[5].messageLength = 19B
*.host9.app[5].sendInterval = 1ms
*.host9.app[5].startTime = 7700us
*.host9.app[5].stopTime = 7800us
*.host9.app[5].display-name = "type2_6"
*.host9.app[5].destPort = 1001
*.host9.app[6].typename = "UdpBasicApp"
*.host9.app[6].destAddresses = "host0"
*.host9.app[6].source.packetNameFormat = "%M-%m-%c"
*.host9.app[6].source.displayStringTextFormat = "sent %p pk (%l)"
*.host9.app[6].messageLength = 19B
*.host9.app[6].sendInterval = 1ms
*.host9.app[6].startTime = 8100us
*.host9.app[6].stopTime = 9100us
*.host9.app[6].display-name = "type2_6"
*.host9.app[6].destPort = 1001
*.host9.app[7].typename = "UdpBasicApp"
*.host9.app[7].destAddresses = "host0"
*.host9.app[7].source.packetNameFormat = "%M-%m-%c"
*.host9.app[7].source.displayStringTextFormat = "sent %p pk (%l)"
*.host9.app[7].messageLength = 19B
*.host9.app[7].sendInterval = 1ms
*.host9.app[7].startTime = 9500us
*.host9.app[7].stopTime = 10000us
*.host9.app[7].display-name = "type2_6"
*.host9.app[7].destPort = 1001
*.streamRedundancyConfigurator.configuration = [
	{
		name: "S1-0",
		packetFilter: "*-type1_0-*",
		source: "host1",
		destination: "host8",
		trees: [[["host1", "switch1", "switch8", "host8"]]]
	},
	{
		name: "S1-1",
		packetFilter: "*-type1_1-*",
		source: "host6",
		destination: "host1",
		trees: [[["host6", "switch6", "switch0", "switch1", "host1"]]]
	},
	{
		name: "S1-2",
		packetFilter: "*-type1_2-*",
		source: "host9",
		destination: "host4",
		trees: [[["host9", "switch9", "switch6", "switch0", "switch4", "host4"]]]
	},
	{
		name: "S2-0",
		packetFilter: "*-type2_0-*",
		source: "host8",
		destination: "host0",
		trees: [[["host8", "switch8", "switch1", "switch0", "host0"]]]
	},
	{
		name: "S2-1",
		packetFilter: "*-type2_1-*",
		source: "host4",
		destination: "host5",
		trees: [[["host4", "switch4", "switch5", "host5"]]]
	},
	{
		name: "S2-2",
		packetFilter: "*-type2_2-*",
		source: "host4",
		destination: "host7",
		trees: [[["host4", "switch4", "switch5", "switch7", "host7"]]]
	},
	{
		name: "S2-3",
		packetFilter: "*-type2_3-*",
		source: "host0",
		destination: "host2",
		trees: [[["host0", "switch0", "switch1", "switch2", "host2"]]]
	},
	{
		name: "S2-4",
		packetFilter: "*-type2_4-*",
		source: "host0",
		destination: "host7",
		trees: [[["host0", "switch0", "switch6", "switch7", "host7"]]]
	},
	{
		name: "S2-5",
		packetFilter: "*-type2_5-*",
		source: "host8",
		destination: "host6",
		trees: [[["host8", "switch8", "switch1", "switch0", "switch6", "host6"]]]
	},
	{
		name: "S2-6",
		packetFilter: "*-type2_6-*",
		source: "host9",
		destination: "host0",
		trees: [[["host9", "switch9", "switch2", "switch8", "switch1", "switch0", "host0"]]]
	},
	{
		name: "S2-7",
		packetFilter: "*-type2_7-*",
		source: "host0",
		destination: "host6",
		trees: [[["host0", "switch0", "switch6", "host6"]]]
	},
	{
		name: "S2-8",
		packetFilter: "*-type2_8-*",
		source: "host1",
		destination: "host0",
		trees: [[["host1", "switch1", "switch0", "host0"]]]
	}]
	

