[General]
network = TSN_multipath
sim-time-limit = 100ms
*.macForwardingTableConfigurator.typename = ""
*.*.hasStreamRedundancy = true
*.*.bridging.streamRelay.typename = "StreamRelayLayer"
*.*.bridging.streamCoder.typename = "StreamCoderLayer"
*.streamRedundancyConfigurator.typename = "StreamRedundancyConfigurator"
*.host0.eth[0].bitrate = 1000Mbps
*.switch0.eth[0].bitrate = 1000Mbps
*.switch0.eth[1].bitrate = 2100Mbps
*.switch0.eth[2].bitrate = 1500Mbps
*.switch0.eth[3].bitrate = 2300Mbps
*.switch0.eth[4].bitrate = 2100Mbps
*.switch0.eth[5].bitrate = 1900Mbps
*.switch0.eth[6].bitrate = 2000Mbps
*.switch0.eth[7].bitrate = 2400Mbps
*.switch0.eth[8].bitrate = 2200Mbps
*.switch0.eth[9].bitrate = 1500Mbps
*.switch0.eth[10].bitrate = 2200Mbps
*.host1.eth[0].bitrate = 1000Mbps
*.switch1.eth[0].bitrate = 1000Mbps
*.switch1.eth[1].bitrate = 2100Mbps
*.switch1.eth[2].bitrate = 1200Mbps
*.switch1.eth[3].bitrate = 1200Mbps
*.switch1.eth[4].bitrate = 1400Mbps
*.switch1.eth[5].bitrate = 1700Mbps
*.switch1.eth[6].bitrate = 1200Mbps
*.switch1.eth[7].bitrate = 2000Mbps
*.switch1.eth[8].bitrate = 1400Mbps
*.switch1.eth[9].bitrate = 1700Mbps
*.switch1.eth[10].bitrate = 1200Mbps
*.host2.eth[0].bitrate = 1000Mbps
*.switch2.eth[0].bitrate = 1000Mbps
*.switch2.eth[1].bitrate = 1200Mbps
*.switch2.eth[2].bitrate = 2200Mbps
*.switch2.eth[3].bitrate = 1200Mbps
*.switch2.eth[4].bitrate = 2200Mbps
*.switch2.eth[5].bitrate = 2200Mbps
*.switch2.eth[6].bitrate = 2400Mbps
*.switch2.eth[7].bitrate = 1700Mbps
*.switch2.eth[8].bitrate = 2200Mbps
*.switch2.eth[9].bitrate = 1700Mbps
*.switch2.eth[10].bitrate = 1300Mbps
*.switch2.eth[11].bitrate = 2200Mbps
*.switch2.eth[12].bitrate = 2200Mbps
*.host3.eth[0].bitrate = 1000Mbps
*.switch3.eth[0].bitrate = 1000Mbps
*.switch3.eth[1].bitrate = 1500Mbps
*.switch3.eth[2].bitrate = 2200Mbps
*.switch3.eth[3].bitrate = 2000Mbps
*.switch3.eth[4].bitrate = 1700Mbps
*.switch3.eth[5].bitrate = 1900Mbps
*.switch3.eth[6].bitrate = 1600Mbps
*.switch3.eth[7].bitrate = 2300Mbps
*.switch3.eth[8].bitrate = 1700Mbps
*.switch3.eth[9].bitrate = 1600Mbps
*.host4.eth[0].bitrate = 1000Mbps
*.switch4.eth[0].bitrate = 1000Mbps
*.switch4.eth[1].bitrate = 2300Mbps
*.switch4.eth[2].bitrate = 1700Mbps
*.switch4.eth[3].bitrate = 1500Mbps
*.switch4.eth[4].bitrate = 1400Mbps
*.switch4.eth[5].bitrate = 1600Mbps
*.switch4.eth[6].bitrate = 1700Mbps
*.switch4.eth[7].bitrate = 1900Mbps
*.switch4.eth[8].bitrate = 2000Mbps
*.host5.eth[0].bitrate = 1000Mbps
*.switch5.eth[0].bitrate = 1000Mbps
*.switch5.eth[1].bitrate = 2100Mbps
*.switch5.eth[2].bitrate = 1200Mbps
*.switch5.eth[3].bitrate = 2200Mbps
*.switch5.eth[4].bitrate = 1900Mbps
*.switch5.eth[5].bitrate = 2200Mbps
*.switch5.eth[6].bitrate = 2300Mbps
*.switch5.eth[7].bitrate = 2200Mbps
*.host6.eth[0].bitrate = 1000Mbps
*.switch6.eth[0].bitrate = 1000Mbps
*.switch6.eth[1].bitrate = 1900Mbps
*.switch6.eth[2].bitrate = 1400Mbps
*.switch6.eth[3].bitrate = 2400Mbps
*.switch6.eth[4].bitrate = 1700Mbps
*.switch6.eth[5].bitrate = 1300Mbps
*.switch6.eth[6].bitrate = 1900Mbps
*.switch6.eth[7].bitrate = 2300Mbps
*.switch6.eth[8].bitrate = 1800Mbps
*.switch6.eth[9].bitrate = 1500Mbps
*.switch6.eth[10].bitrate = 2200Mbps
*.host7.eth[0].bitrate = 1000Mbps
*.switch7.eth[0].bitrate = 1000Mbps
*.switch7.eth[1].bitrate = 2000Mbps
*.switch7.eth[2].bitrate = 1700Mbps
*.switch7.eth[3].bitrate = 1600Mbps
*.switch7.eth[4].bitrate = 1600Mbps
*.switch7.eth[5].bitrate = 1200Mbps
*.switch7.eth[6].bitrate = 2200Mbps
*.switch7.eth[7].bitrate = 1700Mbps
*.switch7.eth[8].bitrate = 2300Mbps
*.host8.eth[0].bitrate = 1000Mbps
*.switch8.eth[0].bitrate = 1000Mbps
*.switch8.eth[1].bitrate = 2400Mbps
*.switch8.eth[2].bitrate = 1700Mbps
*.switch8.eth[3].bitrate = 2200Mbps
*.switch8.eth[4].bitrate = 2300Mbps
*.switch8.eth[5].bitrate = 1700Mbps
*.switch8.eth[6].bitrate = 2200Mbps
*.switch8.eth[7].bitrate = 1800Mbps
*.switch8.eth[8].bitrate = 2300Mbps
*.switch8.eth[9].bitrate = 2200Mbps
*.switch8.eth[10].bitrate = 2200Mbps
*.switch8.eth[11].bitrate = 2000Mbps
*.switch8.eth[12].bitrate = 2200Mbps
*.switch8.eth[13].bitrate = 2200Mbps
*.host9.eth[0].bitrate = 1000Mbps
*.switch9.eth[0].bitrate = 1000Mbps
*.switch9.eth[1].bitrate = 1700Mbps
*.switch9.eth[2].bitrate = 1500Mbps
*.switch9.eth[3].bitrate = 1600Mbps
*.host0.numApps = 21
*.host0.app[0].typename = "UdpSourceApp"
*.host0.app[0].io.destAddress = "host7"
*.host0.app[0].source.packetNameFormat = "%M-%m-%c"
*.host0.app[0].source.displayStringTextFormat = "sent %p pk (%l)"
*.host0.app[0].source.packetLength = 14B
*.host0.app[0].source.productionInterval = 1ms
*.host0.app[0].display-name = "type1_1"
*.host0.app[0].io.destPort = 1000
*.host0.app[1].typename = "UdpSinkApp"
*.host0.app[1].io.localPort = 1000
*.host0.app[2].typename = "UdpSourceApp"
*.host0.app[2].io.destAddress = "host7"
*.host0.app[2].source.packetNameFormat = "%M-%m-%c"
*.host0.app[2].source.displayStringTextFormat = "sent %p pk (%l)"
*.host0.app[2].source.packetLength = 19B
*.host0.app[2].source.productionInterval = 1ms
*.host0.app[2].display-name = "type1_3"
*.host0.app[2].io.destPort = 1001
*.host0.app[3].typename = "UdpBasicApp"
*.host0.app[3].destAddresses = "host9"
*.host0.app[3].source.packetNameFormat = "%M-%m-%c"
*.host0.app[3].source.displayStringTextFormat = "sent %p pk (%l)"
*.host0.app[3].messageLength = 13B
*.host0.app[3].sendInterval = 1ms
*.host0.app[3].startTime = 16ms
*.host0.app[3].stopTime = 19ms
*.host0.app[3].display-name = "type2_1"
*.host0.app[3].destPort = 1000
*.host0.app[4].typename = "UdpBasicApp"
*.host0.app[4].destAddresses = "host9"
*.host0.app[4].source.packetNameFormat = "%M-%m-%c"
*.host0.app[4].source.displayStringTextFormat = "sent %p pk (%l)"
*.host0.app[4].messageLength = 13B
*.host0.app[4].sendInterval = 1ms
*.host0.app[4].startTime = 20ms
*.host0.app[4].stopTime = 23ms
*.host0.app[4].display-name = "type2_1"
*.host0.app[4].destPort = 1000
*.host0.app[5].typename = "UdpBasicApp"
*.host0.app[5].destAddresses = "host9"
*.host0.app[5].source.packetNameFormat = "%M-%m-%c"
*.host0.app[5].source.displayStringTextFormat = "sent %p pk (%l)"
*.host0.app[5].messageLength = 13B
*.host0.app[5].sendInterval = 1ms
*.host0.app[5].startTime = 32ms
*.host0.app[5].stopTime = 36ms
*.host0.app[5].display-name = "type2_1"
*.host0.app[5].destPort = 1000
*.host0.app[6].typename = "UdpBasicApp"
*.host0.app[6].destAddresses = "host9"
*.host0.app[6].source.packetNameFormat = "%M-%m-%c"
*.host0.app[6].source.displayStringTextFormat = "sent %p pk (%l)"
*.host0.app[6].messageLength = 13B
*.host0.app[6].sendInterval = 1ms
*.host0.app[6].startTime = 44ms
*.host0.app[6].stopTime = 62ms
*.host0.app[6].display-name = "type2_1"
*.host0.app[6].destPort = 1000
*.host0.app[7].typename = "UdpBasicApp"
*.host0.app[7].destAddresses = "host9"
*.host0.app[7].source.packetNameFormat = "%M-%m-%c"
*.host0.app[7].source.displayStringTextFormat = "sent %p pk (%l)"
*.host0.app[7].messageLength = 13B
*.host0.app[7].sendInterval = 1ms
*.host0.app[7].startTime = 72ms
*.host0.app[7].stopTime = 94ms
*.host0.app[7].display-name = "type2_1"
*.host0.app[7].destPort = 1000
*.host0.app[8].typename = "UdpBasicApp"
*.host0.app[8].destAddresses = "host1"
*.host0.app[8].source.packetNameFormat = "%M-%m-%c"
*.host0.app[8].source.displayStringTextFormat = "sent %p pk (%l)"
*.host0.app[8].messageLength = 20B
*.host0.app[8].sendInterval = 1ms
*.host0.app[8].startTime = 1ms
*.host0.app[8].stopTime = 14ms
*.host0.app[8].display-name = "type2_8"
*.host0.app[8].destPort = 1001
*.host0.app[9].typename = "UdpBasicApp"
*.host0.app[9].destAddresses = "host1"
*.host0.app[9].source.packetNameFormat = "%M-%m-%c"
*.host0.app[9].source.displayStringTextFormat = "sent %p pk (%l)"
*.host0.app[9].messageLength = 20B
*.host0.app[9].sendInterval = 1ms
*.host0.app[9].startTime = 19ms
*.host0.app[9].stopTime = 29ms
*.host0.app[9].display-name = "type2_8"
*.host0.app[9].destPort = 1001
*.host0.app[10].typename = "UdpBasicApp"
*.host0.app[10].destAddresses = "host1"
*.host0.app[10].source.packetNameFormat = "%M-%m-%c"
*.host0.app[10].source.displayStringTextFormat = "sent %p pk (%l)"
*.host0.app[10].messageLength = 20B
*.host0.app[10].sendInterval = 1ms
*.host0.app[10].startTime = 42ms
*.host0.app[10].stopTime = 52ms
*.host0.app[10].display-name = "type2_8"
*.host0.app[10].destPort = 1001
*.host0.app[11].typename = "UdpBasicApp"
*.host0.app[11].destAddresses = "host1"
*.host0.app[11].source.packetNameFormat = "%M-%m-%c"
*.host0.app[11].source.displayStringTextFormat = "sent %p pk (%l)"
*.host0.app[11].messageLength = 20B
*.host0.app[11].sendInterval = 1ms
*.host0.app[11].startTime = 57ms
*.host0.app[11].stopTime = 64ms
*.host0.app[11].display-name = "type2_8"
*.host0.app[11].destPort = 1001
*.host0.app[12].typename = "UdpBasicApp"
*.host0.app[12].destAddresses = "host1"
*.host0.app[12].source.packetNameFormat = "%M-%m-%c"
*.host0.app[12].source.displayStringTextFormat = "sent %p pk (%l)"
*.host0.app[12].messageLength = 20B
*.host0.app[12].sendInterval = 1ms
*.host0.app[12].startTime = 67ms
*.host0.app[12].stopTime = 70ms
*.host0.app[12].display-name = "type2_8"
*.host0.app[12].destPort = 1001
*.host0.app[13].typename = "UdpBasicApp"
*.host0.app[13].destAddresses = "host1"
*.host0.app[13].source.packetNameFormat = "%M-%m-%c"
*.host0.app[13].source.displayStringTextFormat = "sent %p pk (%l)"
*.host0.app[13].messageLength = 20B
*.host0.app[13].sendInterval = 1ms
*.host0.app[13].startTime = 74ms
*.host0.app[13].stopTime = 77ms
*.host0.app[13].display-name = "type2_8"
*.host0.app[13].destPort = 1001
*.host0.app[14].typename = "UdpBasicApp"
*.host0.app[14].destAddresses = "host6"
*.host0.app[14].source.packetNameFormat = "%M-%m-%c"
*.host0.app[14].source.displayStringTextFormat = "sent %p pk (%l)"
*.host0.app[14].messageLength = 13B
*.host0.app[14].sendInterval = 1ms
*.host0.app[14].startTime = 12ms
*.host0.app[14].stopTime = 15ms
*.host0.app[14].display-name = "type2_13"
*.host0.app[14].destPort = 1001
*.host0.app[15].typename = "UdpBasicApp"
*.host0.app[15].destAddresses = "host6"
*.host0.app[15].source.packetNameFormat = "%M-%m-%c"
*.host0.app[15].source.displayStringTextFormat = "sent %p pk (%l)"
*.host0.app[15].messageLength = 13B
*.host0.app[15].sendInterval = 1ms
*.host0.app[15].startTime = 28ms
*.host0.app[15].stopTime = 40ms
*.host0.app[15].display-name = "type2_13"
*.host0.app[15].destPort = 1001
*.host0.app[16].typename = "UdpBasicApp"
*.host0.app[16].destAddresses = "host6"
*.host0.app[16].source.packetNameFormat = "%M-%m-%c"
*.host0.app[16].source.displayStringTextFormat = "sent %p pk (%l)"
*.host0.app[16].messageLength = 13B
*.host0.app[16].sendInterval = 1ms
*.host0.app[16].startTime = 58ms
*.host0.app[16].stopTime = 59ms
*.host0.app[16].display-name = "type2_13"
*.host0.app[16].destPort = 1001
*.host0.app[17].typename = "UdpBasicApp"
*.host0.app[17].destAddresses = "host6"
*.host0.app[17].source.packetNameFormat = "%M-%m-%c"
*.host0.app[17].source.displayStringTextFormat = "sent %p pk (%l)"
*.host0.app[17].messageLength = 13B
*.host0.app[17].sendInterval = 1ms
*.host0.app[17].startTime = 61ms
*.host0.app[17].stopTime = 66ms
*.host0.app[17].display-name = "type2_13"
*.host0.app[17].destPort = 1001
*.host0.app[18].typename = "UdpBasicApp"
*.host0.app[18].destAddresses = "host6"
*.host0.app[18].source.packetNameFormat = "%M-%m-%c"
*.host0.app[18].source.displayStringTextFormat = "sent %p pk (%l)"
*.host0.app[18].messageLength = 13B
*.host0.app[18].sendInterval = 1ms
*.host0.app[18].startTime = 79ms
*.host0.app[18].stopTime = 88ms
*.host0.app[18].display-name = "type2_13"
*.host0.app[18].destPort = 1001
*.host0.app[19].typename = "UdpBasicApp"
*.host0.app[19].destAddresses = "host6"
*.host0.app[19].source.packetNameFormat = "%M-%m-%c"
*.host0.app[19].source.displayStringTextFormat = "sent %p pk (%l)"
*.host0.app[19].messageLength = 13B
*.host0.app[19].sendInterval = 1ms
*.host0.app[19].startTime = 92ms
*.host0.app[19].stopTime = 100ms
*.host0.app[19].display-name = "type2_13"
*.host0.app[19].destPort = 1001
*.host0.app[20].typename = "UdpSinkApp"
*.host0.app[20].io.localPort = 1001
*.host1.numApps = 7
*.host1.app[0].typename = "UdpSourceApp"
*.host1.app[0].io.destAddress = "host3"
*.host1.app[0].source.packetNameFormat = "%M-%m-%c"
*.host1.app[0].source.displayStringTextFormat = "sent %p pk (%l)"
*.host1.app[0].source.packetLength = 17B
*.host1.app[0].source.productionInterval = 1ms
*.host1.app[0].display-name = "type1_0"
*.host1.app[0].io.destPort = 1000
*.host1.app[1].typename = "UdpSinkApp"
*.host1.app[1].io.localPort = 1000
*.host1.app[2].typename = "UdpSinkApp"
*.host1.app[2].io.localPort = 1001
*.host1.app[3].typename = "UdpBasicApp"
*.host1.app[3].destAddresses = "host7"
*.host1.app[3].source.packetNameFormat = "%M-%m-%c"
*.host1.app[3].source.displayStringTextFormat = "sent %p pk (%l)"
*.host1.app[3].messageLength = 16B
*.host1.app[3].sendInterval = 1ms
*.host1.app[3].startTime = 16ms
*.host1.app[3].stopTime = 28ms
*.host1.app[3].display-name = "type2_9"
*.host1.app[3].destPort = 1002
*.host1.app[4].typename = "UdpBasicApp"
*.host1.app[4].destAddresses = "host7"
*.host1.app[4].source.packetNameFormat = "%M-%m-%c"
*.host1.app[4].source.displayStringTextFormat = "sent %p pk (%l)"
*.host1.app[4].messageLength = 16B
*.host1.app[4].sendInterval = 1ms
*.host1.app[4].startTime = 32ms
*.host1.app[4].stopTime = 49ms
*.host1.app[4].display-name = "type2_9"
*.host1.app[4].destPort = 1002
*.host1.app[5].typename = "UdpBasicApp"
*.host1.app[5].destAddresses = "host7"
*.host1.app[5].source.packetNameFormat = "%M-%m-%c"
*.host1.app[5].source.displayStringTextFormat = "sent %p pk (%l)"
*.host1.app[5].messageLength = 16B
*.host1.app[5].sendInterval = 1ms
*.host1.app[5].startTime = 60ms
*.host1.app[5].stopTime = 62ms
*.host1.app[5].display-name = "type2_9"
*.host1.app[5].destPort = 1002
*.host1.app[6].typename = "UdpBasicApp"
*.host1.app[6].destAddresses = "host7"
*.host1.app[6].source.packetNameFormat = "%M-%m-%c"
*.host1.app[6].source.displayStringTextFormat = "sent %p pk (%l)"
*.host1.app[6].messageLength = 16B
*.host1.app[6].sendInterval = 1ms
*.host1.app[6].startTime = 99ms
*.host1.app[6].stopTime = 100ms
*.host1.app[6].display-name = "type2_9"
*.host1.app[6].destPort = 1002
*.host2.numApps = 4
*.host2.app[0].typename = "UdpBasicApp"
*.host2.app[0].destAddresses = "host9"
*.host2.app[0].source.packetNameFormat = "%M-%m-%c"
*.host2.app[0].source.displayStringTextFormat = "sent %p pk (%l)"
*.host2.app[0].messageLength = 16B
*.host2.app[0].sendInterval = 1ms
*.host2.app[0].startTime = 23ms
*.host2.app[0].stopTime = 24ms
*.host2.app[0].display-name = "type2_6"
*.host2.app[0].destPort = 1001
*.host2.app[1].typename = "UdpBasicApp"
*.host2.app[1].destAddresses = "host9"
*.host2.app[1].source.packetNameFormat = "%M-%m-%c"
*.host2.app[1].source.displayStringTextFormat = "sent %p pk (%l)"
*.host2.app[1].messageLength = 16B
*.host2.app[1].sendInterval = 1ms
*.host2.app[1].startTime = 29ms
*.host2.app[1].stopTime = 60ms
*.host2.app[1].display-name = "type2_6"
*.host2.app[1].destPort = 1001
*.host2.app[2].typename = "UdpBasicApp"
*.host2.app[2].destAddresses = "host9"
*.host2.app[2].source.packetNameFormat = "%M-%m-%c"
*.host2.app[2].source.displayStringTextFormat = "sent %p pk (%l)"
*.host2.app[2].messageLength = 16B
*.host2.app[2].sendInterval = 1ms
*.host2.app[2].startTime = 89ms
*.host2.app[2].stopTime = 95ms
*.host2.app[2].display-name = "type2_6"
*.host2.app[2].destPort = 1001
*.host2.app[3].typename = "UdpSinkApp"
*.host2.app[3].io.localPort = 1000
*.host3.numApps = 23
*.host3.app[0].typename = "UdpSinkApp"
*.host3.app[0].io.localPort = 1000
*.host3.app[1].typename = "UdpBasicApp"
*.host3.app[1].destAddresses = "host1"
*.host3.app[1].source.packetNameFormat = "%M-%m-%c"
*.host3.app[1].source.displayStringTextFormat = "sent %p pk (%l)"
*.host3.app[1].messageLength = 17B
*.host3.app[1].sendInterval = 1ms
*.host3.app[1].startTime = 2ms
*.host3.app[1].stopTime = 6ms
*.host3.app[1].display-name = "type2_2"
*.host3.app[1].destPort = 1000
*.host3.app[2].typename = "UdpBasicApp"
*.host3.app[2].destAddresses = "host1"
*.host3.app[2].source.packetNameFormat = "%M-%m-%c"
*.host3.app[2].source.displayStringTextFormat = "sent %p pk (%l)"
*.host3.app[2].messageLength = 17B
*.host3.app[2].sendInterval = 1ms
*.host3.app[2].startTime = 8ms
*.host3.app[2].stopTime = 9ms
*.host3.app[2].display-name = "type2_2"
*.host3.app[2].destPort = 1000
*.host3.app[3].typename = "UdpBasicApp"
*.host3.app[3].destAddresses = "host1"
*.host3.app[3].source.packetNameFormat = "%M-%m-%c"
*.host3.app[3].source.displayStringTextFormat = "sent %p pk (%l)"
*.host3.app[3].messageLength = 17B
*.host3.app[3].sendInterval = 1ms
*.host3.app[3].startTime = 15ms
*.host3.app[3].stopTime = 32ms
*.host3.app[3].display-name = "type2_2"
*.host3.app[3].destPort = 1000
*.host3.app[4].typename = "UdpBasicApp"
*.host3.app[4].destAddresses = "host1"
*.host3.app[4].source.packetNameFormat = "%M-%m-%c"
*.host3.app[4].source.displayStringTextFormat = "sent %p pk (%l)"
*.host3.app[4].messageLength = 17B
*.host3.app[4].sendInterval = 1ms
*.host3.app[4].startTime = 36ms
*.host3.app[4].stopTime = 47ms
*.host3.app[4].display-name = "type2_2"
*.host3.app[4].destPort = 1000
*.host3.app[5].typename = "UdpBasicApp"
*.host3.app[5].destAddresses = "host1"
*.host3.app[5].source.packetNameFormat = "%M-%m-%c"
*.host3.app[5].source.displayStringTextFormat = "sent %p pk (%l)"
*.host3.app[5].messageLength = 17B
*.host3.app[5].sendInterval = 1ms
*.host3.app[5].startTime = 48ms
*.host3.app[5].stopTime = 53ms
*.host3.app[5].display-name = "type2_2"
*.host3.app[5].destPort = 1000
*.host3.app[6].typename = "UdpBasicApp"
*.host3.app[6].destAddresses = "host1"
*.host3.app[6].source.packetNameFormat = "%M-%m-%c"
*.host3.app[6].source.displayStringTextFormat = "sent %p pk (%l)"
*.host3.app[6].messageLength = 17B
*.host3.app[6].sendInterval = 1ms
*.host3.app[6].startTime = 70ms
*.host3.app[6].stopTime = 71ms
*.host3.app[6].display-name = "type2_2"
*.host3.app[6].destPort = 1000
*.host3.app[7].typename = "UdpBasicApp"
*.host3.app[7].destAddresses = "host1"
*.host3.app[7].source.packetNameFormat = "%M-%m-%c"
*.host3.app[7].source.displayStringTextFormat = "sent %p pk (%l)"
*.host3.app[7].messageLength = 17B
*.host3.app[7].sendInterval = 1ms
*.host3.app[7].startTime = 87ms
*.host3.app[7].stopTime = 88ms
*.host3.app[7].display-name = "type2_2"
*.host3.app[7].destPort = 1000
*.host3.app[8].typename = "UdpBasicApp"
*.host3.app[8].destAddresses = "host1"
*.host3.app[8].source.packetNameFormat = "%M-%m-%c"
*.host3.app[8].source.displayStringTextFormat = "sent %p pk (%l)"
*.host3.app[8].messageLength = 17B
*.host3.app[8].sendInterval = 1ms
*.host3.app[8].startTime = 91ms
*.host3.app[8].stopTime = 100ms
*.host3.app[8].display-name = "type2_2"
*.host3.app[8].destPort = 1000
*.host3.app[9].typename = "UdpBasicApp"
*.host3.app[9].destAddresses = "host8"
*.host3.app[9].source.packetNameFormat = "%M-%m-%c"
*.host3.app[9].source.displayStringTextFormat = "sent %p pk (%l)"
*.host3.app[9].messageLength = 12B
*.host3.app[9].sendInterval = 1ms
*.host3.app[9].startTime = 4ms
*.host3.app[9].stopTime = 10ms
*.host3.app[9].display-name = "type2_7"
*.host3.app[9].destPort = 1001
*.host3.app[10].typename = "UdpBasicApp"
*.host3.app[10].destAddresses = "host8"
*.host3.app[10].source.packetNameFormat = "%M-%m-%c"
*.host3.app[10].source.displayStringTextFormat = "sent %p pk (%l)"
*.host3.app[10].messageLength = 12B
*.host3.app[10].sendInterval = 1ms
*.host3.app[10].startTime = 14ms
*.host3.app[10].stopTime = 15ms
*.host3.app[10].display-name = "type2_7"
*.host3.app[10].destPort = 1001
*.host3.app[11].typename = "UdpBasicApp"
*.host3.app[11].destAddresses = "host8"
*.host3.app[11].source.packetNameFormat = "%M-%m-%c"
*.host3.app[11].source.displayStringTextFormat = "sent %p pk (%l)"
*.host3.app[11].messageLength = 12B
*.host3.app[11].sendInterval = 1ms
*.host3.app[11].startTime = 33ms
*.host3.app[11].stopTime = 37ms
*.host3.app[11].display-name = "type2_7"
*.host3.app[11].destPort = 1001
*.host3.app[12].typename = "UdpBasicApp"
*.host3.app[12].destAddresses = "host8"
*.host3.app[12].source.packetNameFormat = "%M-%m-%c"
*.host3.app[12].source.displayStringTextFormat = "sent %p pk (%l)"
*.host3.app[12].messageLength = 12B
*.host3.app[12].sendInterval = 1ms
*.host3.app[12].startTime = 38ms
*.host3.app[12].stopTime = 42ms
*.host3.app[12].display-name = "type2_7"
*.host3.app[12].destPort = 1001
*.host3.app[13].typename = "UdpBasicApp"
*.host3.app[13].destAddresses = "host8"
*.host3.app[13].source.packetNameFormat = "%M-%m-%c"
*.host3.app[13].source.displayStringTextFormat = "sent %p pk (%l)"
*.host3.app[13].messageLength = 12B
*.host3.app[13].sendInterval = 1ms
*.host3.app[13].startTime = 44ms
*.host3.app[13].stopTime = 53ms
*.host3.app[13].display-name = "type2_7"
*.host3.app[13].destPort = 1001
*.host3.app[14].typename = "UdpBasicApp"
*.host3.app[14].destAddresses = "host8"
*.host3.app[14].source.packetNameFormat = "%M-%m-%c"
*.host3.app[14].source.displayStringTextFormat = "sent %p pk (%l)"
*.host3.app[14].messageLength = 12B
*.host3.app[14].sendInterval = 1ms
*.host3.app[14].startTime = 62ms
*.host3.app[14].stopTime = 70ms
*.host3.app[14].display-name = "type2_7"
*.host3.app[14].destPort = 1001
*.host3.app[15].typename = "UdpBasicApp"
*.host3.app[15].destAddresses = "host8"
*.host3.app[15].source.packetNameFormat = "%M-%m-%c"
*.host3.app[15].source.displayStringTextFormat = "sent %p pk (%l)"
*.host3.app[15].messageLength = 12B
*.host3.app[15].sendInterval = 1ms
*.host3.app[15].startTime = 72ms
*.host3.app[15].stopTime = 82ms
*.host3.app[15].display-name = "type2_7"
*.host3.app[15].destPort = 1001
*.host3.app[16].typename = "UdpBasicApp"
*.host3.app[16].destAddresses = "host8"
*.host3.app[16].source.packetNameFormat = "%M-%m-%c"
*.host3.app[16].source.displayStringTextFormat = "sent %p pk (%l)"
*.host3.app[16].messageLength = 12B
*.host3.app[16].sendInterval = 1ms
*.host3.app[16].startTime = 85ms
*.host3.app[16].stopTime = 95ms
*.host3.app[16].display-name = "type2_7"
*.host3.app[16].destPort = 1001
*.host3.app[17].typename = "UdpBasicApp"
*.host3.app[17].destAddresses = "host6"
*.host3.app[17].source.packetNameFormat = "%M-%m-%c"
*.host3.app[17].source.displayStringTextFormat = "sent %p pk (%l)"
*.host3.app[17].messageLength = 16B
*.host3.app[17].sendInterval = 1ms
*.host3.app[17].startTime = 2ms
*.host3.app[17].stopTime = 3ms
*.host3.app[17].display-name = "type2_11"
*.host3.app[17].destPort = 1000
*.host3.app[18].typename = "UdpBasicApp"
*.host3.app[18].destAddresses = "host6"
*.host3.app[18].source.packetNameFormat = "%M-%m-%c"
*.host3.app[18].source.displayStringTextFormat = "sent %p pk (%l)"
*.host3.app[18].messageLength = 16B
*.host3.app[18].sendInterval = 1ms
*.host3.app[18].startTime = 11ms
*.host3.app[18].stopTime = 15ms
*.host3.app[18].display-name = "type2_11"
*.host3.app[18].destPort = 1000
*.host3.app[19].typename = "UdpBasicApp"
*.host3.app[19].destAddresses = "host6"
*.host3.app[19].source.packetNameFormat = "%M-%m-%c"
*.host3.app[19].source.displayStringTextFormat = "sent %p pk (%l)"
*.host3.app[19].messageLength = 16B
*.host3.app[19].sendInterval = 1ms
*.host3.app[19].startTime = 31ms
*.host3.app[19].stopTime = 34ms
*.host3.app[19].display-name = "type2_11"
*.host3.app[19].destPort = 1000
*.host3.app[20].typename = "UdpBasicApp"
*.host3.app[20].destAddresses = "host6"
*.host3.app[20].source.packetNameFormat = "%M-%m-%c"
*.host3.app[20].source.displayStringTextFormat = "sent %p pk (%l)"
*.host3.app[20].messageLength = 16B
*.host3.app[20].sendInterval = 1ms
*.host3.app[20].startTime = 37ms
*.host3.app[20].stopTime = 43ms
*.host3.app[20].display-name = "type2_11"
*.host3.app[20].destPort = 1000
*.host3.app[21].typename = "UdpBasicApp"
*.host3.app[21].destAddresses = "host6"
*.host3.app[21].source.packetNameFormat = "%M-%m-%c"
*.host3.app[21].source.displayStringTextFormat = "sent %p pk (%l)"
*.host3.app[21].messageLength = 16B
*.host3.app[21].sendInterval = 1ms
*.host3.app[21].startTime = 48ms
*.host3.app[21].stopTime = 73ms
*.host3.app[21].display-name = "type2_11"
*.host3.app[21].destPort = 1000
*.host3.app[22].typename = "UdpBasicApp"
*.host3.app[22].destAddresses = "host6"
*.host3.app[22].source.packetNameFormat = "%M-%m-%c"
*.host3.app[22].source.displayStringTextFormat = "sent %p pk (%l)"
*.host3.app[22].messageLength = 16B
*.host3.app[22].sendInterval = 1ms
*.host3.app[22].startTime = 75ms
*.host3.app[22].stopTime = 95ms
*.host3.app[22].display-name = "type2_11"
*.host3.app[22].destPort = 1000
*.host4.numApps = 3
*.host4.app[0].typename = "UdpSinkApp"
*.host4.app[0].io.localPort = 1000
*.host4.app[1].typename = "UdpSinkApp"
*.host4.app[1].io.localPort = 1001
*.host4.app[2].typename = "UdpSinkApp"
*.host4.app[2].io.localPort = 1002
*.host5.numApps = 9
*.host5.app[0].typename = "UdpSourceApp"
*.host5.app[0].io.destAddress = "host0"
*.host5.app[0].source.packetNameFormat = "%M-%m-%c"
*.host5.app[0].source.displayStringTextFormat = "sent %p pk (%l)"
*.host5.app[0].source.packetLength = 20B
*.host5.app[0].source.productionInterval = 1ms
*.host5.app[0].display-name = "type1_2"
*.host5.app[0].io.destPort = 1000
*.host5.app[1].typename = "UdpSinkApp"
*.host5.app[1].io.localPort = 1000
*.host5.app[2].typename = "UdpBasicApp"
*.host5.app[2].destAddresses = "host8"
*.host5.app[2].source.packetNameFormat = "%M-%m-%c"
*.host5.app[2].source.displayStringTextFormat = "sent %p pk (%l)"
*.host5.app[2].messageLength = 16B
*.host5.app[2].sendInterval = 1ms
*.host5.app[2].startTime = 4ms
*.host5.app[2].stopTime = 11ms
*.host5.app[2].display-name = "type2_12"
*.host5.app[2].destPort = 1002
*.host5.app[3].typename = "UdpBasicApp"
*.host5.app[3].destAddresses = "host8"
*.host5.app[3].source.packetNameFormat = "%M-%m-%c"
*.host5.app[3].source.displayStringTextFormat = "sent %p pk (%l)"
*.host5.app[3].messageLength = 16B
*.host5.app[3].sendInterval = 1ms
*.host5.app[3].startTime = 15ms
*.host5.app[3].stopTime = 17ms
*.host5.app[3].display-name = "type2_12"
*.host5.app[3].destPort = 1002
*.host5.app[4].typename = "UdpBasicApp"
*.host5.app[4].destAddresses = "host8"
*.host5.app[4].source.packetNameFormat = "%M-%m-%c"
*.host5.app[4].source.displayStringTextFormat = "sent %p pk (%l)"
*.host5.app[4].messageLength = 16B
*.host5.app[4].sendInterval = 1ms
*.host5.app[4].startTime = 20ms
*.host5.app[4].stopTime = 39ms
*.host5.app[4].display-name = "type2_12"
*.host5.app[4].destPort = 1002
*.host5.app[5].typename = "UdpBasicApp"
*.host5.app[5].destAddresses = "host8"
*.host5.app[5].source.packetNameFormat = "%M-%m-%c"
*.host5.app[5].source.displayStringTextFormat = "sent %p pk (%l)"
*.host5.app[5].messageLength = 16B
*.host5.app[5].sendInterval = 1ms
*.host5.app[5].startTime = 41ms
*.host5.app[5].stopTime = 43ms
*.host5.app[5].display-name = "type2_12"
*.host5.app[5].destPort = 1002
*.host5.app[6].typename = "UdpBasicApp"
*.host5.app[6].destAddresses = "host8"
*.host5.app[6].source.packetNameFormat = "%M-%m-%c"
*.host5.app[6].source.displayStringTextFormat = "sent %p pk (%l)"
*.host5.app[6].messageLength = 16B
*.host5.app[6].sendInterval = 1ms
*.host5.app[6].startTime = 49ms
*.host5.app[6].stopTime = 50ms
*.host5.app[6].display-name = "type2_12"
*.host5.app[6].destPort = 1002
*.host5.app[7].typename = "UdpBasicApp"
*.host5.app[7].destAddresses = "host8"
*.host5.app[7].source.packetNameFormat = "%M-%m-%c"
*.host5.app[7].source.displayStringTextFormat = "sent %p pk (%l)"
*.host5.app[7].messageLength = 16B
*.host5.app[7].sendInterval = 1ms
*.host5.app[7].startTime = 56ms
*.host5.app[7].stopTime = 57ms
*.host5.app[7].display-name = "type2_12"
*.host5.app[7].destPort = 1002
*.host5.app[8].typename = "UdpBasicApp"
*.host5.app[8].destAddresses = "host8"
*.host5.app[8].source.packetNameFormat = "%M-%m-%c"
*.host5.app[8].source.displayStringTextFormat = "sent %p pk (%l)"
*.host5.app[8].messageLength = 16B
*.host5.app[8].sendInterval = 1ms
*.host5.app[8].startTime = 76ms
*.host5.app[8].stopTime = 77ms
*.host5.app[8].display-name = "type2_12"
*.host5.app[8].destPort = 1002
*.host6.numApps = 13
*.host6.app[0].typename = "UdpSinkApp"
*.host6.app[0].io.localPort = 1000
*.host6.app[1].typename = "UdpSinkApp"
*.host6.app[1].io.localPort = 1001
*.host6.app[2].typename = "UdpBasicApp"
*.host6.app[2].destAddresses = "host2"
*.host6.app[2].source.packetNameFormat = "%M-%m-%c"
*.host6.app[2].source.displayStringTextFormat = "sent %p pk (%l)"
*.host6.app[2].messageLength = 17B
*.host6.app[2].sendInterval = 1ms
*.host6.app[2].startTime = 5ms
*.host6.app[2].stopTime = 26ms
*.host6.app[2].display-name = "type2_14"
*.host6.app[2].destPort = 1000
*.host6.app[3].typename = "UdpBasicApp"
*.host6.app[3].destAddresses = "host2"
*.host6.app[3].source.packetNameFormat = "%M-%m-%c"
*.host6.app[3].source.displayStringTextFormat = "sent %p pk (%l)"
*.host6.app[3].messageLength = 17B
*.host6.app[3].sendInterval = 1ms
*.host6.app[3].startTime = 33ms
*.host6.app[3].stopTime = 45ms
*.host6.app[3].display-name = "type2_14"
*.host6.app[3].destPort = 1000
*.host6.app[4].typename = "UdpBasicApp"
*.host6.app[4].destAddresses = "host2"
*.host6.app[4].source.packetNameFormat = "%M-%m-%c"
*.host6.app[4].source.displayStringTextFormat = "sent %p pk (%l)"
*.host6.app[4].messageLength = 17B
*.host6.app[4].sendInterval = 1ms
*.host6.app[4].startTime = 55ms
*.host6.app[4].stopTime = 58ms
*.host6.app[4].display-name = "type2_14"
*.host6.app[4].destPort = 1000
*.host6.app[5].typename = "UdpBasicApp"
*.host6.app[5].destAddresses = "host2"
*.host6.app[5].source.packetNameFormat = "%M-%m-%c"
*.host6.app[5].source.displayStringTextFormat = "sent %p pk (%l)"
*.host6.app[5].messageLength = 17B
*.host6.app[5].sendInterval = 1ms
*.host6.app[5].startTime = 60ms
*.host6.app[5].stopTime = 73ms
*.host6.app[5].display-name = "type2_14"
*.host6.app[5].destPort = 1000
*.host6.app[6].typename = "UdpBasicApp"
*.host6.app[6].destAddresses = "host2"
*.host6.app[6].source.packetNameFormat = "%M-%m-%c"
*.host6.app[6].source.displayStringTextFormat = "sent %p pk (%l)"