[General]
network = TSN_multipath
sim-time-limit = 100ms
*.macForwardingTableConfigurator.typename = ""
*.*.hasStreamRedundancy = true
*.*.bridging.streamRelay.typename = "StreamRelayLayer"
*.*.bridging.streamCoder.typename = "StreamCoderLayer"
*.streamRedundancyConfigurator.typename = "StreamRedundancyConfigurator"
*.host0.eth[0].bitrate = 1000Mbps
*.switch0.eth[0].bitrate = 1000Mbps
*.switch0.eth[1].bitrate = 1300Mbps
*.switch0.eth[2].bitrate = 1300Mbps
*.switch0.eth[3].bitrate = 1600Mbps
*.switch0.eth[4].bitrate = 1700Mbps
*.switch0.eth[5].bitrate = 1700Mbps
*.switch0.eth[6].bitrate = 1300Mbps
*.switch0.eth[7].bitrate = 1500Mbps
*.switch0.eth[8].bitrate = 1900Mbps
*.switch0.eth[9].bitrate = 2000Mbps
*.switch0.eth[10].bitrate = 2400Mbps
*.switch0.eth[11].bitrate = 2400Mbps
*.switch0.eth[12].bitrate = 1500Mbps
*.switch0.eth[13].bitrate = 2300Mbps
*.switch0.eth[14].bitrate = 2200Mbps
*.switch0.eth[15].bitrate = 2400Mbps
*.switch0.eth[16].bitrate = 1500Mbps
*.switch0.eth[17].bitrate = 1200Mbps
*.switch0.eth[18].bitrate = 1900Mbps
*.switch0.eth[19].bitrate = 2100Mbps
*.host1.eth[0].bitrate = 1000Mbps
*.switch1.eth[0].bitrate = 1000Mbps
*.switch1.eth[1].bitrate = 1800Mbps
*.switch1.eth[2].bitrate = 1700Mbps
*.switch1.eth[3].bitrate = 1300Mbps
*.switch1.eth[4].bitrate = 1800Mbps
*.switch1.eth[5].bitrate = 2300Mbps
*.switch1.eth[6].bitrate = 2000Mbps
*.host2.eth[0].bitrate = 1000Mbps
*.switch2.eth[0].bitrate = 1000Mbps
*.switch2.eth[1].bitrate = 1300Mbps
*.switch2.eth[2].bitrate = 2400Mbps
*.switch2.eth[3].bitrate = 1700Mbps
*.switch2.eth[4].bitrate = 1300Mbps
*.switch2.eth[5].bitrate = 1700Mbps
*.switch2.eth[6].bitrate = 2300Mbps
*.switch2.eth[7].bitrate = 1800Mbps
*.switch2.eth[8].bitrate = 1700Mbps
*.switch2.eth[9].bitrate = 1700Mbps
*.switch2.eth[10].bitrate = 1400Mbps
*.switch2.eth[11].bitrate = 1700Mbps
*.switch2.eth[12].bitrate = 2100Mbps
*.switch2.eth[13].bitrate = 1800Mbps
*.switch2.eth[14].bitrate = 1800Mbps
*.switch2.eth[15].bitrate = 1800Mbps
*.switch2.eth[16].bitrate = 2300Mbps
*.host3.eth[0].bitrate = 1000Mbps
*.switch3.eth[0].bitrate = 1000Mbps
*.switch3.eth[1].bitrate = 1500Mbps
*.switch3.eth[2].bitrate = 1200Mbps
*.switch3.eth[3].bitrate = 2400Mbps
*.switch3.eth[4].bitrate = 2000Mbps
*.switch3.eth[5].bitrate = 1700Mbps
*.switch3.eth[6].bitrate = 2000Mbps
*.switch3.eth[7].bitrate = 1900Mbps
*.switch3.eth[8].bitrate = 2100Mbps
*.switch3.eth[9].bitrate = 1600Mbps
*.switch3.eth[10].bitrate = 1200Mbps
*.switch3.eth[11].bitrate = 2300Mbps
*.switch3.eth[12].bitrate = 1700Mbps
*.switch3.eth[13].bitrate = 1600Mbps
*.host4.eth[0].bitrate = 1000Mbps
*.switch4.eth[0].bitrate = 1000Mbps
*.switch4.eth[1].bitrate = 1300Mbps
*.switch4.eth[2].bitrate = 1300Mbps
*.switch4.eth[3].bitrate = 1200Mbps
*.switch4.eth[4].bitrate = 1900Mbps
*.switch4.eth[5].bitrate = 1200Mbps
*.switch4.eth[6].bitrate = 2300Mbps
*.switch4.eth[7].bitrate = 1200Mbps
*.host5.eth[0].bitrate = 1000Mbps
*.switch5.eth[0].bitrate = 1000Mbps
*.switch5.eth[1].bitrate = 1600Mbps
*.switch5.eth[2].bitrate = 1700Mbps
*.switch5.eth[3].bitrate = 1800Mbps
*.switch5.eth[4].bitrate = 1200Mbps
*.switch5.eth[5].bitrate = 1200Mbps
*.switch5.eth[6].bitrate = 1300Mbps
*.switch5.eth[7].bitrate = 2300Mbps
*.switch5.eth[8].bitrate = 2000Mbps
*.switch5.eth[9].bitrate = 1200Mbps
*.host6.eth[0].bitrate = 1000Mbps
*.switch6.eth[0].bitrate = 1000Mbps
*.switch6.eth[1].bitrate = 2300Mbps
*.switch6.eth[2].bitrate = 2400Mbps
*.switch6.eth[3].bitrate = 2300Mbps
*.switch6.eth[4].bitrate = 1800Mbps
*.switch6.eth[5].bitrate = 1200Mbps
*.switch6.eth[6].bitrate = 2100Mbps
*.switch6.eth[7].bitrate = 2300Mbps
*.switch6.eth[8].bitrate = 2000Mbps
*.switch6.eth[9].bitrate = 1200Mbps
*.switch6.eth[10].bitrate = 2100Mbps
*.switch6.eth[11].bitrate = 1700Mbps
*.switch6.eth[12].bitrate = 1900Mbps
*.switch6.eth[13].bitrate = 2400Mbps
*.switch6.eth[14].bitrate = 2300Mbps
*.switch6.eth[15].bitrate = 2300Mbps
*.switch6.eth[16].bitrate = 1200Mbps
*.switch6.eth[17].bitrate = 2000Mbps
*.host7.eth[0].bitrate = 1000Mbps
*.switch7.eth[0].bitrate = 1000Mbps
*.switch7.eth[1].bitrate = 1700Mbps
*.switch7.eth[2].bitrate = 1800Mbps
*.switch7.eth[3].bitrate = 2100Mbps
*.switch7.eth[4].bitrate = 2200Mbps
*.switch7.eth[5].bitrate = 1300Mbps
*.switch7.eth[6].bitrate = 1800Mbps
*.switch7.eth[7].bitrate = 2100Mbps
*.switch7.eth[8].bitrate = 1200Mbps
*.switch7.eth[9].bitrate = 2300Mbps
*.switch7.eth[10].bitrate = 1900Mbps
*.switch7.eth[11].bitrate = 1200Mbps
*.switch7.eth[12].bitrate = 1900Mbps
*.switch7.eth[13].bitrate = 2300Mbps
*.switch7.eth[14].bitrate = 2200Mbps
*.switch7.eth[15].bitrate = 1200Mbps
*.switch7.eth[16].bitrate = 2400Mbps
*.switch7.eth[17].bitrate = 1300Mbps
*.switch7.eth[18].bitrate = 1600Mbps
*.switch7.eth[19].bitrate = 1500Mbps
*.switch7.eth[20].bitrate = 2300Mbps
*.host8.eth[0].bitrate = 1000Mbps
*.switch8.eth[0].bitrate = 1000Mbps
*.switch8.eth[1].bitrate = 1700Mbps
*.switch8.eth[2].bitrate = 2000Mbps
*.switch8.eth[3].bitrate = 2300Mbps
*.switch8.eth[4].bitrate = 1900Mbps
*.switch8.eth[5].bitrate = 2400Mbps
*.switch8.eth[6].bitrate = 1800Mbps
*.switch8.eth[7].bitrate = 1600Mbps
*.switch8.eth[8].bitrate = 2300Mbps
*.switch8.eth[9].bitrate = 1200Mbps
*.switch8.eth[10].bitrate = 2300Mbps
*.switch8.eth[11].bitrate = 1700Mbps
*.switch8.eth[12].bitrate = 1500Mbps
*.switch8.eth[13].bitrate = 2400Mbps
*.switch8.eth[14].bitrate = 2000Mbps
*.switch8.eth[15].bitrate = 2200Mbps
*.switch8.eth[16].bitrate = 2200Mbps
*.switch8.eth[17].bitrate = 2100Mbps
*.host9.eth[0].bitrate = 1000Mbps
*.switch9.eth[0].bitrate = 1000Mbps
*.switch9.eth[1].bitrate = 1700Mbps
*.switch9.eth[2].bitrate = 2000Mbps
*.switch9.eth[3].bitrate = 1200Mbps
*.switch9.eth[4].bitrate = 1700Mbps
*.switch9.eth[5].bitrate = 1500Mbps
*.switch9.eth[6].bitrate = 1800Mbps
*.switch9.eth[7].bitrate = 1200Mbps
*.switch9.eth[8].bitrate = 1200Mbps
*.switch9.eth[9].bitrate = 1300Mbps
*.switch9.eth[10].bitrate = 1200Mbps
*.switch9.eth[11].bitrate = 1300Mbps
*.switch9.eth[12].bitrate = 2000Mbps
*.switch9.eth[13].bitrate = 1600Mbps
*.switch9.eth[14].bitrate = 2300Mbps
*.switch9.eth[15].bitrate = 1500Mbps
*.switch9.eth[16].bitrate = 1700Mbps
*.switch9.eth[17].bitrate = 2000Mbps
*.switch9.eth[18].bitrate = 1400Mbps
*.switch9.eth[19].bitrate = 1300Mbps
*.host10.eth[0].bitrate = 1000Mbps
*.switch10.eth[0].bitrate = 1000Mbps
*.switch10.eth[1].bitrate = 1300Mbps
*.switch10.eth[2].bitrate = 1700Mbps
*.switch10.eth[3].bitrate = 1200Mbps
*.switch10.eth[4].bitrate = 1900Mbps
*.switch10.eth[5].bitrate = 1600Mbps
*.switch10.eth[6].bitrate = 1200Mbps
*.switch10.eth[7].bitrate = 2300Mbps
*.switch10.eth[8].bitrate = 2300Mbps
*.switch10.eth[9].bitrate = 2200Mbps
*.switch10.eth[10].bitrate = 2000Mbps
*.switch10.eth[11].bitrate = 1400Mbps
*.switch10.eth[12].bitrate = 1400Mbps
*.switch10.eth[13].bitrate = 2000Mbps
*.host11.eth[0].bitrate = 1000Mbps
*.switch11.eth[0].bitrate = 1000Mbps
*.switch11.eth[1].bitrate = 1500Mbps
*.switch11.eth[2].bitrate = 1700Mbps
*.switch11.eth[3].bitrate = 2100Mbps
*.switch11.eth[4].bitrate = 2300Mbps
*.switch11.eth[5].bitrate = 2300Mbps
*.switch11.eth[6].bitrate = 2300Mbps
*.switch11.eth[7].bitrate = 2300Mbps
*.switch11.eth[8].bitrate = 1600Mbps
*.switch11.eth[9].bitrate = 1400Mbps
*.switch11.eth[10].bitrate = 1400Mbps
*.switch11.eth[11].bitrate = 1200Mbps
*.switch11.eth[12].bitrate = 1200Mbps
*.switch11.eth[13].bitrate = 1300Mbps
*.switch11.eth[14].bitrate = 1700Mbps
*.host12.eth[0].bitrate = 1000Mbps
*.switch12.eth[0].bitrate = 1000Mbps
*.switch12.eth[1].bitrate = 1900Mbps
*.switch12.eth[2].bitrate = 1400Mbps
*.switch12.eth[3].bitrate = 1700Mbps
*.switch12.eth[4].bitrate = 2200Mbps
*.switch12.eth[5].bitrate = 1500Mbps
*.switch12.eth[6].bitrate = 1500Mbps
*.switch12.eth[7].bitrate = 2000Mbps
*.switch12.eth[8].bitrate = 1200Mbps
*.switch12.eth[9].bitrate = 2000Mbps
*.switch12.eth[10].bitrate = 2000Mbps
*.switch12.eth[11].bitrate = 1500Mbps
*.switch12.eth[12].bitrate = 2200Mbps
*.switch12.eth[13].bitrate = 2000Mbps
*.switch12.eth[14].bitrate = 2100Mbps
*.switch12.eth[15].bitrate = 1800Mbps
*.switch12.eth[16].bitrate = 1600Mbps
*.switch12.eth[17].bitrate = 2300Mbps
*.host13.eth[0].bitrate = 1000Mbps
*.switch13.eth[0].bitrate = 1000Mbps
*.switch13.eth[1].bitrate = 2000Mbps
*.switch13.eth[2].bitrate = 1700Mbps
*.switch13.eth[3].bitrate = 1800Mbps
*.switch13.eth[4].bitrate = 1900Mbps
*.switch13.eth[5].bitrate = 1200Mbps
*.switch13.eth[6].bitrate = 2400Mbps
*.switch13.eth[7].bitrate = 1700Mbps
*.switch13.eth[8].bitrate = 1400Mbps
*.switch13.eth[9].bitrate = 2100Mbps
*.switch13.eth[10].bitrate = 1900Mbps
*.switch13.eth[11].bitrate = 2000Mbps
*.switch13.eth[12].bitrate = 1700Mbps
*.switch13.eth[13].bitrate = 1200Mbps
*.switch13.eth[14].bitrate = 2300Mbps
*.switch13.eth[15].bitrate = 1300Mbps
*.switch13.eth[16].bitrate = 1300Mbps
*.switch13.eth[17].bitrate = 1600Mbps
*.switch13.eth[18].bitrate = 1500Mbps
*.host14.eth[0].bitrate = 1000Mbps
*.switch14.eth[0].bitrate = 1000Mbps
*.switch14.eth[1].bitrate = 2400Mbps
*.switch14.eth[2].bitrate = 1800Mbps
*.switch14.eth[3].bitrate = 2100Mbps
*.switch14.eth[4].bitrate = 2000Mbps
*.switch14.eth[5].bitrate = 2400Mbps
*.switch14.eth[6].bitrate = 2400Mbps
*.switch14.eth[7].bitrate = 2000Mbps
*.switch14.eth[8].bitrate = 1200Mbps
*.switch14.eth[9].bitrate = 1800Mbps
*.switch14.eth[10].bitrate = 2100Mbps
*.switch14.eth[11].bitrate = 1600Mbps
*.switch14.eth[12].bitrate = 2100Mbps
*.switch14.eth[13].bitrate = 1700Mbps
*.switch14.eth[14].bitrate = 2300Mbps
*.switch14.eth[15].bitrate = 1500Mbps
*.host0.numApps = 31
*.host0.app[0].typename = "UdpSinkApp"
*.host0.app[0].io.localPort = 1000
*.host0.app[1].typename = "UdpSourceApp"
*.host0.app[1].io.destAddress = "host8"
*.host0.app[1].source.packetNameFormat = "%M-%m-%c"
*.host0.app[1].source.displayStringTextFormat = "sent %p pk (%l)"
*.host0.app[1].source.packetLength = 14B
*.host0.app[1].source.productionInterval = 1ms
*.host0.app[1].display-name = "type1_1"
*.host0.app[1].io.destPort = 1000
*.host0.app[2].typename = "UdpSourceApp"
*.host0.app[2].io.destAddress = "host8"
*.host0.app[2].source.packetNameFormat = "%M-%m-%c"
*.host0.app[2].source.displayStringTextFormat = "sent %p pk (%l)"
*.host0.app[2].source.packetLength = 23B
*.host0.app[2].source.productionInterval = 1ms
*.host0.app[2].display-name = "type1_2"
*.host0.app[2].io.destPort = 1001
*.host0.app[3].typename = "UdpSinkApp"
*.host0.app[3].io.localPort = 1001
*.host0.app[4].typename = "UdpBasicApp"
*.host0.app[4].destAddresses = "host8"
*.host0.app[4].source.packetNameFormat = "%M-%m-%c"
*.host0.app[4].source.displayStringTextFormat = "sent %p pk (%l)"
*.host0.app[4].messageLength = 17B
*.host0.app[4].sendInterval = 1ms
*.host0.app[4].startTime = 4ms
*.host0.app[4].stopTime = 8ms
*.host0.app[4].display-name = "type2_4"
*.host0.app[4].destPort = 1002
*.host0.app[5].typename = "UdpBasicApp"
*.host0.app[5].destAddresses = "host8"
*.host0.app[5].source.packetNameFormat = "%M-%m-%c"
*.host0.app[5].source.displayStringTextFormat = "sent %p pk (%l)"
*.host0.app[5].messageLength = 17B
*.host0.app[5].sendInterval = 1ms
*.host0.app[5].startTime = 10ms
*.host0.app[5].stopTime = 11ms
*.host0.app[5].display-name = "type2_4"
*.host0.app[5].destPort = 1002
*.host0.app[6].typename = "UdpBasicApp"
*.host0.app[6].destAddresses = "host8"
*.host0.app[6].source.packetNameFormat = "%M-%m-%c"
*.host0.app[6].source.displayStringTextFormat = "sent %p pk (%l)"
*.host0.app[6].messageLength = 17B
*.host0.app[6].sendInterval = 1ms
*.host0.app[6].startTime = 12ms
*.host0.app[6].stopTime = 18ms
*.host0.app[6].display-name = "type2_4"
*.host0.app[6].destPort = 1002
*.host0.app[7].typename = "UdpBasicApp"
*.host0.app[7].destAddresses = "host8"
*.host0.app[7].source.packetNameFormat = "%M-%m-%c"
*.host0.app[7].source.displayStringTextFormat = "sent %p pk (%l)"
*.host0.app[7].messageLength = 17B
*.host0.app[7].sendInterval = 1ms
*.host0.app[7].startTime = 23ms
*.host0.app[7].stopTime = 39ms
*.host0.app[7].display-name = "type2_4"
*.host0.app[7].destPort = 1002
*.host0.app[8].typename = "UdpBasicApp"
*.host0.app[8].destAddresses = "host8"
*.host0.app[8].source.packetNameFormat = "%M-%m-%c"
*.host0.app[8].source.displayStringTextFormat = "sent %p pk (%l)"
*.host0.app[8].messageLength = 17B
*.host0.app[8].sendInterval = 1ms
*.host0.app[8].startTime = 42ms
*.host0.app[8].stopTime = 78ms
*.host0.app[8].display-name = "type2_4"
*.host0.app[8].destPort = 1002
*.host0.app[9].typename = "UdpBasicApp"
*.host0.app[9].destAddresses = "host8"
*.host0.app[9].source.packetNameFormat = "%M-%m-%c"
*.host0.app[9].source.displayStringTextFormat = "sent %p pk (%l)"
*.host0.app[9].messageLength = 17B
*.host0.app[9].sendInterval = 1ms
*.host0.app[9].startTime = 80ms
*.host0.app[9].stopTime = 85ms
*.host0.app[9].display-name = "type2_4"
*.host0.app[9].destPort = 1002
*.host0.app[10].typename = "UdpBasicApp"
*.host0.app[10].destAddresses = "host8"
*.host0.app[10].source.packetNameFormat = "%M-%m-%c"
*.host0.app[10].source.displayStringTextFormat = "sent %p pk (%l)"
*.host0.app[10].messageLength = 17B
*.host0.app[10].sendInterval = 1ms
*.host0.app[10].startTime = 87ms
*.host0.app[10].stopTime = 100ms
*.host0.app[10].display-name = "type2_4"
*.host0.app[10].destPort = 1002
*.host0.app[11].typename = "UdpBasicApp"
*.host0.app[11].destAddresses = "host9"
*.host0.app[11].source.packetNameFormat = "%M-%m-%c"
*.host0.app[11].source.displayStringTextFormat = "sent %p pk (%l)"
*.host0.app[11].messageLength = 18B
*.host0.app[11].sendInterval = 1ms
*.host0.app[11].startTime = 4ms
*.host0.app[11].stopTime = 8ms
*.host0.app[11].display-name = "type2_9"
*.host0.app[11].destPort = 1000
*.host0.app[12].typename = "UdpBasicApp"
*.host0.app[12].destAddresses = "host9"
*.host0.app[12].source.packetNameFormat = "%M-%m-%c"
*.host0.app[12].source.displayStringTextFormat = "sent %p pk (%l)"
*.host0.app[12].messageLength = 18B
*.host0.app[12].sendInterval = 1ms
*.host0.app[12].startTime = 11ms
*.host0.app[12].stopTime = 15ms
*.host0.app[12].display-name = "type2_9"
*.host0.app[12].destPort = 1000
*.host0.app[13].typename = "UdpBasicApp"
*.host0.app[13].destAddresses = "host9"
*.host0.app[13].source.packetNameFormat = "%M-%m-%c"
*.host0.app[13].source.displayStringTextFormat = "sent %p pk (%l)"
*.host0.app[13].messageLength = 18B
*.host0.app[13].sendInterval = 1ms
*.host0.app[13].startTime = 18ms
*.host0.app[13].stopTime = 25ms
*.host0.app[13].display-name = "type2_9"
*.host0.app[13].destPort = 1000
*.host0.app[14].typename = "UdpBasicApp"
*.host0.app[14].destAddresses = "host9"
*.host0.app[14].source.packetNameFormat = "%M-%m-%c"
*.host0.app[14].source.displayStringTextFormat = "sent %p pk (%l)"
*.host0.app[14].messageLength = 18B
*.host0.app[14].sendInterval = 1ms
*.host0.app[14].startTime = 35ms
*.host0.app[14].stopTime = 42ms
*.host0.app[14].display-name = "type2_9"
*.host0.app[14].destPort = 1000
*.host0.app[15].typename = "UdpBasicApp"
*.host0.app[15].destAddresses = "host9"
*.host0.app[15].source.packetNameFormat = "%M-%m-%c"
*.host0.app[15].source.displayStringTextFormat = "sent %p pk (%l)"
*.host0.app[15].messageLength = 18B
*.host0.app[15].sendInterval = 1ms
*.host0.app[15].startTime = 45ms
*.host0.app[15].stopTime = 48ms
*.host0.app[15].display-name = "type2_9"
*.host0.app[15].destPort = 1000
*.host0.app[16].typename = "UdpBasicApp"
*.host0.app[16].destAddresses = "host9"
*.host0.app[16].source.packetNameFormat = "%M-%m-%c"
*.host0.app[16].source.displayStringTextFormat = "sent %p pk (%l)"
*.host0.app[16].messageLength = 18B
*.host0.app[16].sendInterval = 1ms
*.host0.app[16].startTime = 49ms
*.host0.app[16].stopTime = 76ms
*.host0.app[16].display-name = "type2_9"
*.host0.app[16].destPort = 1000
*.host0.app[17].typename = "UdpBasicApp"
*.host0.app[17].destAddresses = "host9"
*.host0.app[17].source.packetNameFormat = "%M-%m-%c"
*.host0.app[17].source.displayStringTextFormat = "sent %p pk (%l)"
*.host0.app[17].messageLength = 18B
*.host0.app[17].sendInterval = 1ms
*.host0.app[17].startTime = 79ms
*.host0.app[17].stopTime = 85ms
*.host0.app[17].display-name = "type2_9"
*.host0.app[17].destPort = 1000
*.host0.app[18].typename = "UdpBasicApp"
*.host0.app[18].destAddresses = "host9"
*.host0.app[18].source.packetNameFormat = "%M-%m-%c"
*.host0.app[18].source.displayStringTextFormat = "sent %p pk (%l)"
*.host0.app[18].messageLength = 18B
*.host0.app[18].sendInterval = 1ms
*.host0.app[18].startTime = 87ms
*.host0.app[18].stopTime = 95ms
*.host0.app[18].display-name = "type2_9"
*.host0.app[18].destPort = 1000
*.host0.app[19].typename = "UdpBasicApp"
*.host0.app[19].destAddresses = "host13"
*.host0.app[19].source.packetNameFormat = "%M-%m-%c"
*.host0.app[19].source.displayStringTextFormat = "sent %p pk (%l)"
*.host0.app[19].messageLength = 13B
*.host0.app[19].sendInterval = 1ms
*.host0.app[19].startTime = 17ms
*.host0.app[19].stopTime = 25ms
*.host0.app[19].display-name = "type2_12"
*.host0.app[19].destPort = 1001
*.host0.app[20].typename = "UdpBasicApp"
*.host0.app[20].destAddresses = "host13"
*.host0.app[20].source.packetNameFormat = "%M-%m-%c"
*.host0.app[20].source.displayStringTextFormat = "sent %p pk (%l)"
*.host0.app[20].messageLength = 13B
*.host0.app[20].sendInterval = 1ms
*.host0.app[20].startTime = 56ms
*.host0.app[20].stopTime = 74ms
*.host0.app[20].display-name = "type2_12"
*.host0.app[20].destPort = 1001
*.host0.app[21].typename = "UdpBasicApp"
*.host0.app[21].destAddresses = "host13"
*.host0.app[21].source.packetNameFormat = "%M-%m-%c"
*.host0.app[21].source.displayStringTextFormat = "sent %p pk (%l)"
*.host0.app[21].messageLength = 13B
*.host0.app[21].sendInterval = 1ms
*.host0.app[21].startTime = 77ms
*.host0.app[21].stopTime = 87ms
*.host0.app[21].display-name = "type2_12"
*.host0.app[21].destPort = 1001
*.host0.app[22].typename = "UdpBasicApp"
*.host0.app[22].destAddresses = "host13"
*.host0.app[22].source.packetNameFormat = "%M-%m-%c"
*.host0.app[22].source.displayStringTextFormat = "sent %p pk (%l)"
*.host0.app[22].messageLength = 13B
*.host0.app[22].sendInterval = 1ms
*.host0.app[22].startTime = 90ms
*.host0.app[22].stopTime = 93ms
*.host0.app[22].display-name = "type2_12"
*.host0.app[22].destPort = 1001
*.host0.app[23].typename = "UdpBasicApp"
*.host0.app[23].destAddresses = "host8"
*.host0.app[23].source.packetNameFormat = "%M-%m-%c"
*.host0.app[23].source.displayStringTextFormat = "sent %p pk (%l)"
*.host0.app[23].messageLength = 18B
*.host0.app[23].sendInterval = 1ms
*.host0.app[23].startTime = 5ms
*.host0.app[23].stopTime = 9ms
*.host0.app[23].display-name = "type2_15"
*.host0.app[23].destPort = 1003
*.host0.app[24].typename = "UdpBasicApp"
*.host0.app[24].destAddresses = "host8"
*.host0.app[24].source.packetNameFormat = "%M-%m-%c"
*.host0.app[24].source.displayStringTextFormat = "sent %p pk (%l)"
*.host0.app[24].messageLength = 18B
*.host0.app[24].sendInterval = 1ms
*.host0.app[24].startTime = 13ms
*.host0.app[24].stopTime = 18ms
*.host0.app[24].display-name = "type2_15"
*.host0.app[24].destPort = 1003
*.host0.app[25].typename = "UdpBasicApp"
*.host0.app[25].destAddresses = "host8"
*.host0.app[25].source.packetNameFormat = "%M-%m-%c"
*.host0.app[25].source.displayStringTextFormat = "sent %p pk (%l)"
*.host0.app[25].messageLength = 18B
*.host0.app[25].sendInterval = 1ms
*.host0.app[25].startTime = 23ms
*.host0.app[25].stopTime = 25ms
*.host0.app[25].display-name = "type2_15"
*.host0.app[25].destPort = 1003
*.host0.app[26].typename = "UdpBasicApp"
*.host0.app[26].destAddresses = "host8"
*.host0.app[26].source.packetNameFormat = "%M-%m-%c"
*.host0.app[26].source.displayStringTextFormat = "sent %p pk (%l)"
*.host0.app[26].messageLength = 18B
*.host0.app[26].sendInterval = 1ms
*.host0.app[26].startTime = 36ms
*.host0.app[26].stopTime = 43ms
*.host0.app[26].display-name = "type2_15"
*.host0.app[26].destPort = 1003
*.host0.app[27].typename = "UdpBasicApp"
*.host0.app[27].destAddresses = "host8"
*.host0.app[27].source.packetNameFormat = "%M-%m-%c"
*.host0.app[27].source.displayStringTextFormat = "sent %p pk (%l)"
*.host0.app[27].messageLength = 18B
*.host0.app[27].sendInterval = 1ms
*.host0.app[27].startTime = 57ms
*.host0.app[27].stopTime = 69ms
*.host0.app[27].display-name = "type2_15"
*.host0.app[27].destPort = 1003
*.host0.app[28].typename = "UdpBasicApp"
*.host0.app[28].destAddresses = "host8"
*.host0.app[28].source.packetNameFormat = "%M-%m-%c"
*.host0.app[28].source.displayStringTextFormat = "sent %p pk (%l)"
*.host0.app[28].messageLength = 18B
*.host0.app[28].sendInterval = 1ms
*.host0.app[28].startTime = 71ms
*.host0.app[28].stopTime = 73ms
*.host0.app[28].display-name = "type2_15"
*.host0.app[28].destPort = 1003
*.host0.app[29].typename = "UdpBasicApp"
*.host0.app[29].destAddresses = "host8"
*.host0.app[29].source.packetNameFormat = "%M-%m-%c"
*.host0.app[29].source.displayStringTextFormat = "sent %p pk (%l)"
*.host0.app[29].messageLength = 18B
*.host0.app[29].sendInterval = 1ms
*.host0.app[29].startTime = 75ms
*.host0.app[29].stopTime = 88ms
*.host0.app[29].display-name = "type2_15"
*.host0.app[29].destPort = 1003
*.host0.app[30].typename = "UdpBasicApp"
*.host0.app[30].destAddresses = "host8"
*.host0.app[30].source.packetNameFormat = "%M-%m-%c"
*.host0.app[30].source.displayStringTextFormat = "sent %p pk (%l)"
*.host0.app[30].messageLength = 18B
*.host0.app[30].sendInterval = 1ms
*.host0.app[30].startTime = 99ms
*.host0.app[30].stopTime = 100ms
*.host0.app[30].display-name = "type2_15"
*.host0.app[30].destPort = 1003
*.host1.numApps = 8
*.host1.app[0].typename = "UdpBasicApp"
*.host1.app[0].destAddresses = "host6"
*.host1.app[0].source.packetNameFormat = "%M-%m-%c"
*.host1.app[0].source.displayStringTextFormat = "sent %p pk (%l)"
*.host1.app[0].messageLength = 24B
*.host1.app[0].sendInterval = 1ms
*.host1.app[0].startTime = 5ms
*.host1.app[0].stopTime = 6ms
*.host1.app[0].display-name = "type2_0"
*.host1.app[0].destPort = 1000
*.host1.app[1].typename = "UdpBasicApp"
*.host1.app[1].destAddresses = "host6"
*.host1.app[1].source.packetNameFormat = "%M-%m-%c"
*.host1.app[1].source.displayStringTextFormat = "sent %p pk (%l)"
*.host1.app[1].messageLength = 24B
*.host1.app[1].sendInterval = 1ms
*.host1.app[1].startTime = 8ms
*.host1.app[1].stopTime = 19ms
*.host1.app[1].display-name = "type2_0"
*.host1.app[1].destPort = 1000
*.host1.app[2].typename = "UdpBasicApp"
*.host1.app[2].destAddresses = "host6"
*.host1.app[2].source.packetNameFormat = "%M-%m-%c"
*.host1.app[2].source.displayStringTextFormat = "sent %p pk (%l)"
*.host1.app[2].messageLength = 24B
*.host1.app[2].sendInterval = 1ms
*.host1.app[2].startTime = 27ms
*.host1.app[2].stopTime = 28ms
*.host1.app[2].display-name = "type2_0"
*.host1.app[2].destPort = 1000
*.host1.app[3].typename = "UdpBasicApp"
*.host1.app[3].destAddresses = "host6"
*.host1.app[3].source.packetNameFormat = "%M-%m-%c"
*.host1.app[3].source.displayStringTextFormat = "sent %p pk (%l)"
*.host1.app[3].messageLength = 24B
*.host1.app[3].sendInterval = 1ms
*.host1.app[3].startTime = 47ms
*.host1.app[3].stopTime = 60ms
*.host1.app[3].display-name = "type2_0"
*.host1.app[3].destPort = 1000
*.host1.app[4].typename = "UdpBasicApp"
*.host1.app[4].destAddresses = "host6"
*.host1.app[4].source.packetNameFormat = "%M-%m-%c"
*.host1.app[4].source.displayStringTextFormat = "sent %p pk (%l)"
*.host1.app[4].messageLength = 24B
*.host1.app[4].sendInterval = 1ms
*.host1.app[4].startTime = 61ms
*.host1.app[4].stopTime = 72ms
*.host1.app[4].display-name = "type2_0"
*.host1.app[4].destPort = 1000
*.host1.app[5].typename = "UdpBasicApp"
*.host1.app[5].destAddresses = "host6"
*.host1.app[5].source.packetNameFormat = "%M-%m-%c"
*.host1.app[5].source.displayStringTextFormat = "sent %p pk (%l)"
*.host1.app[5].messageLength = 24B
*.host1.app[5].sendInterval = 1ms
*.host1.app[5].startTime = 88ms
*.host1.app[5].stopTime = 90ms
*.host1.app[5].display-name = "type2_0"
*.host1.app[5].destPort = 1000
*.host1.app[6].typename = "UdpBasicApp"
*.host1.app[6].destAddresses = "host6"
*.host1.app[6].source.packetNameFormat = "%M-%m-%c"
*.host1.app[6].source.displayStringTextFormat = "sent %p pk (%l)"
*.host1.app[6].messageLength = 24B
*.host1.app[6].sendInterval = 1ms
*.host1.app[6].startTime = 94ms
*.host1.app[6].stopTime = 96ms
*.host1.app[6].display-name = "type2_0"
*.host1.app[6].destPort = 1000
*.host1.app[7].typename = "UdpBasicApp"
*.host1.app[7].destAddresses = "host6"
*.host1.app[7].source.packetNameFormat = "%M-%m-%c"
*.host1.app[7].source.displayStringTextFormat = "sent %p pk (%l)"
*.host1.app[7].messageLength = 24B
*.host1.app[7].sendInterval = 1ms
*.host1.app[7].startTime = 97ms
*.host1.app[7].stopTime = 100ms
*.host1.app[7].display-name = "type2_0"
*.host1.app[7].destPort = 1000
*.host2.numApps = 8
*.host2.app[0].typename = "UdpSourceApp"
*.host2.app[0].io.destAddress = "host0"
*.host2.app[0].source.packetNameFormat = "%M-%m-%c"
*.host2.app[0].source.displayStringTextFormat = "sent %p pk (%l)"
*.host2.app[0].source.packetLength = 15B
*.host2.app[0].source.productionInterval = 1ms
*.host2.app[0].display-name = "type1_0"
*.host2.app[0].io.destPort = 1000
*.host2.app[1].typename = "UdpSinkApp"
*.host2.app[1].io.localPort = 1000
*.host2.app[2].typename = "UdpSinkApp"
*.host2.app[2].io.localPort = 1001
*.host2.app[3].typename = "UdpBasicApp"
*.host2.app[3].destAddresses = "host12"
*.host2.app[3].source.packetNameFormat = "%M-%m-%c"
*.host2.app[3].source.displayStringTextFormat = "sent %p pk (%l)"
*.host2.app[3].messageLength = 22B
*.host2.app[3].sendInterval = 1ms
*.host2.app[3].startTime = 3ms
*.host2.app[3].stopTime = 4ms
*.host2.app[3].display-name = "type2_10"
*.host2.app[3].destPort = 1000
*.host2.app[4].typename = "UdpBasicApp"
*.host2.app[4].destAddresses = "host12"
*.host2.app[4].source.packetNameFormat = "%M-%m-%c"
*.host2.app[4].source.displayStringTextFormat = "sent %p pk (%l)"
*.host2.app[4].messageLength = 22B
*.host2.app[4].sendInterval = 1ms
*.host2.app[4].startTime = 7ms
*.host2.app[4].stopTime = 12ms
*.host2.app[4].display-name = "type2_10"
*.host2.app[4].destPort = 1000
*.host2.app[5].typename = "UdpBasicApp"
*.host2.app[5].destAddresses = "host12"
*.host2.app[5].source.packetNameFormat = "%M-%m-%c"
*.host2.app[5].source.displayStringTextFormat = "sent %p pk (%l)"
*.host2.app[5].messageLength = 22B
*.host2.app[5].sendInterval = 1ms
*.host2.app[5].startTime = 14ms
*.host2.app[5].stopTime = 34ms
*.host2.app[5].display-name = "type2_10"
*.host2.app[5].destPort = 1000
*.host2.app[6].typename = "UdpBasicApp"
*.host2.app[6].destAddresses = "host12"
*.host2.app[6].source.packetNameFormat = "%M-%m-%c"
*.host2.app[6].source.displayStringTextFormat = "sent %p pk (%l)"
*.host2.app[6].messageLength = 22B
*.host2.app[6].sendInterval = 1ms
*.host2.app[6].startTime = 37ms
*.host2.app[6].stopTime = 41ms
*.host2.app[6].display-name = "type2_10"
*.host2.app[6].destPort = 1000
*.host2.app[7].typename = "UdpBasicApp"
*.host2.app[7].destAddresses = "host12"
*.host2.app[7].source.packetNameFormat = "%M-%m-%c"
*.host2.app[7].source.displayStringTextFormat = "sent %p pk (%l)"
*.host2.app[7].messageLength = 22B
*.host2.app[7].sendInterval = 1ms
*.host2.app[7].startTime = 80ms
*.host2.app[7].stopTime = 100ms
*.host2.app[7].display-name = "type2_10"
*.host2.app[7].destPort = 1000
*.host3.numApps = 15
*.host3.app[0].typename = "UdpBasicApp"
*.host3.app[0].destAddresses = "host2"
*.host3.app[0].source.packetNameFormat = "%M-%m-%c"
*.host3.app[0].source.displayStringTextFormat = "sent %p pk (%l)"
*.host3.app[0].messageLength = 15B
*.host3.app[0].sendInterval = 1ms
*.host3.app[0].startTime = 16ms
*.host3.app[0].stopTime = 17ms
*.host3.app[0].display-name = "type2_7"
*.host3.app[0].destPort = 1000
*.host3.app[1].typename = "UdpBasicApp"
*.host3.app[1].destAddresses = "host2"
*.host3.app[1].source.packetNameFormat = "%M-%m-%c"
*.host3.app[1].source.displayStringTextFormat = "sent %p pk (%l)"
*.host3.app[1].messageLength = 15B
*.host3.app[1].sendInterval = 1ms
*.host3.app[1].startTime = 19ms
*.host3.app[1].stopTime = 23ms
*.host3.app[1].display-name = "type2_7"
*.host3.app[1].destPort = 1000
*.host3.app[2].typename = "UdpBasicApp"
*.host3.app[2].destAddresses = "host2"
*.host3.app[2].source.packetNameFormat = "%M-%m-%c"
*.host3.app[2].source.displayStringTextFormat = "sent %p pk (%l)"
*.host3.app[2].messageLength = 15B
*.host3.app[2].sendInterval = 1ms
*.host3.app[2].startTime = 25ms
*.host3.app[2].stopTime = 27ms
*.host3.app[2].display-name = "type2_7"
*.host3.app[2].destPort = 1000
*.host3.app[3].typename = "UdpBasicApp"
*.host3.app[3].destAddresses = "host2"
*.host3.app[3].source.packetNameFormat = "%M-%m-%c"
*.host3.app[3].source.displayStringTextFormat = "sent %p pk (%l)"
*.host3.app[3].messageLength = 15B
*.host3.app[3].sendInterval = 1ms
*.host3.app[3].startTime = 33ms
*.host3.app[3].stopTime = 45ms
*.host3.app[3].display-name = "type2_7"
*.host3.app[3].destPort = 1000
*.host3.app[4].typename = "UdpBasicApp"
*.host3.app[4].destAddresses = "host2"
*.host3.app[4].source.packetNameFormat = "%M-%m-%c"
*.host3.app[4].source.displayStringTextFormat = "sent %p pk (%l)"
*.host3.app[4].messageLength = 15B
*.host3.app[4].sendInterval = 1ms
*.host3.app[4].startTime = 46ms
*.host3.app[4].stopTime = 52ms
*.host3.app[4].display-name = "type2_7"
*.host3.app[4].destPort = 1000
*.host3.app[5].typename = "UdpBasicApp"
*.host3.app[5].destAddresses = "host2"
*.host3.app[5].source.packetNameFormat = "%M-%m-%c"
*.host3.app[5].source.displayStringTextFormat = "sent %p pk (%l)"
*.host3.app[5].messageLength = 15B
*.host3.app[5].sendInterval = 1ms
*.host3.app[5].startTime = 59ms
*.host3.app[5].stopTime = 81ms
*.host3.app[5].display-name = "type2_7"
*.host3.app[5].destPort = 1000
*.host3.app[6].typename = "UdpBasicApp"
*.host3.app[6].destAddresses = "host2"
*.host3.app[6].source.packetNameFormat = "%M-%m-%c"
*.host3.app[6].source.displayStringTextFormat = "sent %p pk (%l)"
*.host3.app[6].messageLength = 15B
*.host3.app[6].sendInterval = 1ms
*.host3.app[6].startTime = 91ms
*.host3.app[6].stopTime = 100ms
*.host3.app[6].display-name = "type2_7"
*.host3.app[6].destPort = 1000
*.host3.app[7].typename = "UdpSinkApp"