[General]
network = TSN_multipath
sim-time-limit = 100ms
*.macForwardingTableConfigurator.typename = ""
*.*.hasStreamRedundancy = true
*.*.bridging.streamRelay.typename = "StreamRelayLayer"
*.*.bridging.streamCoder.typename = "StreamCoderLayer"
*.streamRedundancyConfigurator.typename = "StreamRedundancyConfigurator"
*.host0.eth[0].bitrate = 1000Mbps
*.switch0.eth[0].bitrate = 1000Mbps
*.switch0.eth[1].bitrate = 1500Mbps
*.switch0.eth[2].bitrate = 2300Mbps
*.switch0.eth[3].bitrate = 2300Mbps
*.switch0.eth[4].bitrate = 2400Mbps
*.switch0.eth[5].bitrate = 2000Mbps
*.switch0.eth[6].bitrate = 1700Mbps
*.switch0.eth[7].bitrate = 2000Mbps
*.switch0.eth[8].bitrate = 2400Mbps
*.switch0.eth[9].bitrate = 2000Mbps
*.host1.eth[0].bitrate = 1000Mbps
*.switch1.eth[0].bitrate = 1000Mbps
*.switch1.eth[1].bitrate = 2400Mbps
*.switch1.eth[2].bitrate = 1500Mbps
*.switch1.eth[3].bitrate = 2000Mbps
*.switch1.eth[4].bitrate = 2300Mbps
*.switch1.eth[5].bitrate = 1500Mbps
*.switch1.eth[6].bitrate = 2200Mbps
*.switch1.eth[7].bitrate = 2400Mbps
*.switch1.eth[8].bitrate = 1400Mbps
*.switch1.eth[9].bitrate = 1300Mbps
*.switch1.eth[10].bitrate = 1400Mbps
*.switch1.eth[11].bitrate = 1900Mbps
*.switch1.eth[12].bitrate = 2400Mbps
*.host2.eth[0].bitrate = 1000Mbps
*.switch2.eth[0].bitrate = 1000Mbps
*.switch2.eth[1].bitrate = 1500Mbps
*.switch2.eth[2].bitrate = 2000Mbps
*.switch2.eth[3].bitrate = 2300Mbps
*.switch2.eth[4].bitrate = 1700Mbps
*.switch2.eth[5].bitrate = 2100Mbps
*.switch2.eth[6].bitrate = 2200Mbps
*.switch2.eth[7].bitrate = 1600Mbps
*.switch2.eth[8].bitrate = 1300Mbps
*.switch2.eth[9].bitrate = 1500Mbps
*.switch2.eth[10].bitrate = 1500Mbps
*.host3.eth[0].bitrate = 1000Mbps
*.switch3.eth[0].bitrate = 1000Mbps
*.switch3.eth[1].bitrate = 1500Mbps
*.switch3.eth[2].bitrate = 2000Mbps
*.switch3.eth[3].bitrate = 2300Mbps
*.switch3.eth[4].bitrate = 1700Mbps
*.switch3.eth[5].bitrate = 1600Mbps
*.switch3.eth[6].bitrate = 1900Mbps
*.switch3.eth[7].bitrate = 1600Mbps
*.switch3.eth[8].bitrate = 2300Mbps
*.switch3.eth[9].bitrate = 2400Mbps
*.switch3.eth[10].bitrate = 1600Mbps
*.switch3.eth[11].bitrate = 2200Mbps
*.switch3.eth[12].bitrate = 1800Mbps
*.host4.eth[0].bitrate = 1000Mbps
*.switch4.eth[0].bitrate = 1000Mbps
*.switch4.eth[1].bitrate = 2300Mbps
*.switch4.eth[2].bitrate = 1900Mbps
*.switch4.eth[3].bitrate = 1400Mbps
*.switch4.eth[4].bitrate = 1300Mbps
*.switch4.eth[5].bitrate = 1600Mbps
*.switch4.eth[6].bitrate = 2400Mbps
*.switch4.eth[7].bitrate = 1300Mbps
*.switch4.eth[8].bitrate = 1500Mbps
*.switch4.eth[9].bitrate = 2200Mbps
*.switch4.eth[10].bitrate = 2200Mbps
*.switch4.eth[11].bitrate = 1900Mbps
*.switch4.eth[12].bitrate = 2300Mbps
*.switch4.eth[13].bitrate = 1700Mbps
*.host5.eth[0].bitrate = 1000Mbps
*.switch5.eth[0].bitrate = 1000Mbps
*.switch5.eth[1].bitrate = 2300Mbps
*.switch5.eth[2].bitrate = 1700Mbps
*.switch5.eth[3].bitrate = 1600Mbps
*.switch5.eth[4].bitrate = 2400Mbps
*.switch5.eth[5].bitrate = 2000Mbps
*.switch5.eth[6].bitrate = 1300Mbps
*.switch5.eth[7].bitrate = 1900Mbps
*.switch5.eth[8].bitrate = 1600Mbps
*.switch5.eth[9].bitrate = 1800Mbps
*.switch5.eth[10].bitrate = 1300Mbps
*.switch5.eth[11].bitrate = 1600Mbps
*.switch5.eth[12].bitrate = 1600Mbps
*.host6.eth[0].bitrate = 1000Mbps
*.switch6.eth[0].bitrate = 1000Mbps
*.switch6.eth[1].bitrate = 1500Mbps
*.switch6.eth[2].bitrate = 2100Mbps
*.switch6.eth[3].bitrate = 2300Mbps
*.switch6.eth[4].bitrate = 1300Mbps
*.switch6.eth[5].bitrate = 1400Mbps
*.switch6.eth[6].bitrate = 1500Mbps
*.switch6.eth[7].bitrate = 2300Mbps
*.switch6.eth[8].bitrate = 1300Mbps
*.switch6.eth[9].bitrate = 1600Mbps
*.switch6.eth[10].bitrate = 1900Mbps
*.switch6.eth[11].bitrate = 2000Mbps
*.switch6.eth[12].bitrate = 1400Mbps
*.host7.eth[0].bitrate = 1000Mbps
*.switch7.eth[0].bitrate = 1000Mbps
*.switch7.eth[1].bitrate = 2300Mbps
*.switch7.eth[2].bitrate = 2200Mbps
*.switch7.eth[3].bitrate = 2400Mbps
*.switch7.eth[4].bitrate = 1500Mbps
*.switch7.eth[5].bitrate = 1600Mbps
*.switch7.eth[6].bitrate = 2400Mbps
*.switch7.eth[7].bitrate = 1900Mbps
*.switch7.eth[8].bitrate = 2200Mbps
*.switch7.eth[9].bitrate = 1500Mbps
*.host8.eth[0].bitrate = 1000Mbps
*.switch8.eth[0].bitrate = 1000Mbps
*.switch8.eth[1].bitrate = 2400Mbps
*.switch8.eth[2].bitrate = 2200Mbps
*.switch8.eth[3].bitrate = 1600Mbps
*.switch8.eth[4].bitrate = 2000Mbps
*.switch8.eth[5].bitrate = 2400Mbps
*.switch8.eth[6].bitrate = 1800Mbps
*.switch8.eth[7].bitrate = 1700Mbps
*.switch8.eth[8].bitrate = 1600Mbps
*.switch8.eth[9].bitrate = 2000Mbps
*.switch8.eth[10].bitrate = 1500Mbps
*.host9.eth[0].bitrate = 1000Mbps
*.switch9.eth[0].bitrate = 1000Mbps
*.switch9.eth[1].bitrate = 2200Mbps
*.switch9.eth[2].bitrate = 2200Mbps
*.switch9.eth[3].bitrate = 1800Mbps
*.switch9.eth[4].bitrate = 1900Mbps
*.switch9.eth[5].bitrate = 1500Mbps
*.switch9.eth[6].bitrate = 1600Mbps
*.switch9.eth[7].bitrate = 1400Mbps
*.host0.numApps = 6
*.host0.app[0].typename = "UdpSourceApp"
*.host0.app[0].io.destAddress = "host7"
*.host0.app[0].source.packetNameFormat = "%M-%m-%c"
*.host0.app[0].source.displayStringTextFormat = "sent %p pk (%l)"
*.host0.app[0].source.packetLength = 20B
*.host0.app[0].source.productionInterval = 1ms
*.host0.app[0].display-name = "type1_1"
*.host0.app[0].io.destPort = 1000
*.host0.app[1].typename = "UdpSinkApp"
*.host0.app[1].io.localPort = 1000
*.host0.app[2].typename = "UdpSinkApp"
*.host0.app[2].io.localPort = 1001
*.host0.app[3].typename = "UdpBasicApp"
*.host0.app[3].destAddresses = "host8"
*.host0.app[3].source.packetNameFormat = "%M-%m-%c"
*.host0.app[3].source.displayStringTextFormat = "sent %p pk (%l)"
*.host0.app[3].messageLength = 19B
*.host0.app[3].sendInterval = 1ms
*.host0.app[3].startTime = 8ms
*.host0.app[3].stopTime = 12ms
*.host0.app[3].display-name = "type2_5"
*.host0.app[3].destPort = 1001
*.host0.app[4].typename = "UdpBasicApp"
*.host0.app[4].destAddresses = "host8"
*.host0.app[4].source.packetNameFormat = "%M-%m-%c"
*.host0.app[4].source.displayStringTextFormat = "sent %p pk (%l)"
*.host0.app[4].messageLength = 19B
*.host0.app[4].sendInterval = 1ms
*.host0.app[4].startTime = 29ms
*.host0.app[4].stopTime = 66ms
*.host0.app[4].display-name = "type2_5"
*.host0.app[4].destPort = 1001
*.host0.app[5].typename = "UdpBasicApp"
*.host0.app[5].destAddresses = "host8"
*.host0.app[5].source.packetNameFormat = "%M-%m-%c"
*.host0.app[5].source.displayStringTextFormat = "sent %p pk (%l)"
*.host0.app[5].messageLength = 19B
*.host0.app[5].sendInterval = 1ms
*.host0.app[5].startTime = 73ms
*.host0.app[5].stopTime = 89ms
*.host0.app[5].display-name = "type2_5"
*.host0.app[5].destPort = 1001
*.host1.numApps = 7
*.host1.app[0].typename = "UdpSinkApp"
*.host1.app[0].io.localPort = 1000
*.host1.app[1].typename = "UdpSourceApp"
*.host1.app[1].io.destAddress = "host3"
*.host1.app[1].source.packetNameFormat = "%M-%m-%c"
*.host1.app[1].source.displayStringTextFormat = "sent %p pk (%l)"
*.host1.app[1].source.packetLength = 22B
*.host1.app[1].source.productionInterval = 1ms
*.host1.app[1].display-name = "type1_4"
*.host1.app[1].io.destPort = 1000
*.host1.app[2].typename = "UdpSinkApp"
*.host1.app[2].io.localPort = 1001
*.host1.app[3].typename = "UdpSinkApp"
*.host1.app[3].io.localPort = 1002
*.host1.app[4].typename = "UdpSinkApp"
*.host1.app[4].io.localPort = 1003
*.host1.app[5].typename = "UdpSinkApp"
*.host1.app[5].io.localPort = 1004
*.host1.app[6].typename = "UdpSinkApp"
*.host1.app[6].io.localPort = 1005
*.host2.numApps = 0
*.host3.numApps = 3
*.host3.app[0].typename = "UdpSourceApp"
*.host3.app[0].io.destAddress = "host1"
*.host3.app[0].source.packetNameFormat = "%M-%m-%c"
*.host3.app[0].source.displayStringTextFormat = "sent %p pk (%l)"
*.host3.app[0].source.packetLength = 19B
*.host3.app[0].source.productionInterval = 1ms
*.host3.app[0].display-name = "type1_2"
*.host3.app[0].io.destPort = 1000
*.host3.app[1].typename = "UdpSinkApp"
*.host3.app[1].io.localPort = 1000
*.host3.app[2].typename = "UdpSinkApp"
*.host3.app[2].io.localPort = 1001
*.host4.numApps = 8
*.host4.app[0].typename = "UdpSourceApp"
*.host4.app[0].io.destAddress = "host9"
*.host4.app[0].source.packetNameFormat = "%M-%m-%c"
*.host4.app[0].source.displayStringTextFormat = "sent %p pk (%l)"
*.host4.app[0].source.packetLength = 17B
*.host4.app[0].source.productionInterval = 1ms
*.host4.app[0].display-name = "type1_0"
*.host4.app[0].io.destPort = 1000
*.host4.app[1].typename = "UdpBasicApp"
*.host4.app[1].destAddresses = "host3"
*.host4.app[1].source.packetNameFormat = "%M-%m-%c"
*.host4.app[1].source.displayStringTextFormat = "sent %p pk (%l)"
*.host4.app[1].messageLength = 24B
*.host4.app[1].sendInterval = 1ms
*.host4.app[1].startTime = 7ms
*.host4.app[1].stopTime = 30ms
*.host4.app[1].display-name = "type2_2"
*.host4.app[1].destPort = 1001
*.host4.app[2].typename = "UdpBasicApp"
*.host4.app[2].destAddresses = "host3"
*.host4.app[2].source.packetNameFormat = "%M-%m-%c"
*.host4.app[2].source.displayStringTextFormat = "sent %p pk (%l)"
*.host4.app[2].messageLength = 24B
*.host4.app[2].sendInterval = 1ms
*.host4.app[2].startTime = 33ms
*.host4.app[2].stopTime = 41ms
*.host4.app[2].display-name = "type2_2"
*.host4.app[2].destPort = 1001
*.host4.app[3].typename = "UdpBasicApp"
*.host4.app[3].destAddresses = "host3"
*.host4.app[3].source.packetNameFormat = "%M-%m-%c"
*.host4.app[3].source.displayStringTextFormat = "sent %p pk (%l)"
*.host4.app[3].messageLength = 24B
*.host4.app[3].sendInterval = 1ms
*.host4.app[3].startTime = 48ms
*.host4.app[3].stopTime = 51ms
*.host4.app[3].display-name = "type2_2"
*.host4.app[3].destPort = 1001
*.host4.app[4].typename = "UdpBasicApp"
*.host4.app[4].destAddresses = "host3"
*.host4.app[4].source.packetNameFormat = "%M-%m-%c"
*.host4.app[4].source.displayStringTextFormat = "sent %p pk (%l)"
*.host4.app[4].messageLength = 24B
*.host4.app[4].sendInterval = 1ms
*.host4.app[4].startTime = 54ms
*.host4.app[4].stopTime = 62ms
*.host4.app[4].display-name = "type2_2"
*.host4.app[4].destPort = 1001
*.host4.app[5].typename = "UdpBasicApp"
*.host4.app[5].destAddresses = "host3"
*.host4.app[5].source.packetNameFormat = "%M-%m-%c"
*.host4.app[5].source.displayStringTextFormat = "sent %p pk (%l)"
*.host4.app[5].messageLength = 24B
*.host4.app[5].sendInterval = 1ms
*.host4.app[5].startTime = 65ms
*.host4.app[5].stopTime = 66ms
*.host4.app[5].display-name = "type2_2"
*.host4.app[5].destPort = 1001
*.host4.app[6].typename = "UdpBasicApp"
*.host4.app[6].destAddresses = "host3"
*.host4.app[6].source.packetNameFormat = "%M-%m-%c"
*.host4.app[6].source.displayStringTextFormat = "sent %p pk (%l)"
*.host4.app[6].messageLength = 24B
*.host4.app[6].sendInterval = 1ms
*.host4.app[6].startTime = 72ms
*.host4.app[6].stopTime = 75ms
*.host4.app[6].display-name = "type2_2"
*.host4.app[6].destPort = 1001
*.host4.app[7].typename = "UdpBasicApp"
*.host4.app[7].destAddresses = "host3"
*.host4.app[7].source.packetNameFormat = "%M-%m-%c"
*.host4.app[7].source.displayStringTextFormat = "sent %p pk (%l)"
*.host4.app[7].messageLength = 24B
*.host4.app[7].sendInterval = 1ms
*.host4.app[7].startTime = 83ms
*.host4.app[7].stopTime = 100ms
*.host4.app[7].display-name = "type2_2"
*.host4.app[7].destPort = 1001
*.host5.numApps = 3
*.host5.app[0].typename = "UdpSinkApp"
*.host5.app[0].io.localPort = 1000
*.host5.app[1].typename = "UdpSourceApp"
*.host5.app[1].io.destAddress = "host6"
*.host5.app[1].source.packetNameFormat = "%M-%m-%c"
*.host5.app[1].source.displayStringTextFormat = "sent %p pk (%l)"
*.host5.app[1].source.packetLength = 19B
*.host5.app[1].source.productionInterval = 1ms
*.host5.app[1].display-name = "type1_5"
*.host5.app[1].io.destPort = 1000
*.host5.app[2].typename = "UdpSourceApp"
*.host5.app[2].io.destAddress = "host0"
*.host5.app[2].source.packetNameFormat = "%M-%m-%c"
*.host5.app[2].source.displayStringTextFormat = "sent %p pk (%l)"
*.host5.app[2].source.packetLength = 20B
*.host5.app[2].source.productionInterval = 1ms
*.host5.app[2].display-name = "type1_6"
*.host5.app[2].io.destPort = 1000
*.host6.numApps = 19
*.host6.app[0].typename = "UdpSinkApp"
*.host6.app[0].io.localPort = 1000
*.host6.app[1].typename = "UdpBasicApp"
*.host6.app[1].destAddresses = "host8"
*.host6.app[1].source.packetNameFormat = "%M-%m-%c"
*.host6.app[1].source.displayStringTextFormat = "sent %p pk (%l)"
*.host6.app[1].messageLength = 17B
*.host6.app[1].sendInterval = 1ms
*.host6.app[1].startTime = 5ms
*.host6.app[1].stopTime = 24ms
*.host6.app[1].display-name = "type2_1"
*.host6.app[1].destPort = 1000
*.host6.app[2].typename = "UdpBasicApp"
*.host6.app[2].destAddresses = "host8"
*.host6.app[2].source.packetNameFormat = "%M-%m-%c"
*.host6.app[2].source.displayStringTextFormat = "sent %p pk (%l)"
*.host6.app[2].messageLength = 17B
*.host6.app[2].sendInterval = 1ms
*.host6.app[2].startTime = 34ms
*.host6.app[2].stopTime = 35ms
*.host6.app[2].display-name = "type2_1"
*.host6.app[2].destPort = 1000
*.host6.app[3].typename = "UdpBasicApp"
*.host6.app[3].destAddresses = "host8"
*.host6.app[3].source.packetNameFormat = "%M-%m-%c"
*.host6.app[3].source.displayStringTextFormat = "sent %p pk (%l)"
*.host6.app[3].messageLength = 17B
*.host6.app[3].sendInterval = 1ms
*.host6.app[3].startTime = 49ms
*.host6.app[3].stopTime = 55ms
*.host6.app[3].display-name = "type2_1"
*.host6.app[3].destPort = 1000
*.host6.app[4].typename = "UdpBasicApp"
*.host6.app[4].destAddresses = "host8"
*.host6.app[4].source.packetNameFormat = "%M-%m-%c"
*.host6.app[4].source.displayStringTextFormat = "sent %p pk (%l)"
*.host6.app[4].messageLength = 17B
*.host6.app[4].sendInterval = 1ms
*.host6.app[4].startTime = 72ms
*.host6.app[4].stopTime = 74ms
*.host6.app[4].display-name = "type2_1"
*.host6.app[4].destPort = 1000
*.host6.app[5].typename = "UdpBasicApp"
*.host6.app[5].destAddresses = "host8"
*.host6.app[5].source.packetNameFormat = "%M-%m-%c"
*.host6.app[5].source.displayStringTextFormat = "sent %p pk (%l)"
*.host6.app[5].messageLength = 17B
*.host6.app[5].sendInterval = 1ms
*.host6.app[5].startTime = 77ms
*.host6.app[5].stopTime = 85ms
*.host6.app[5].display-name = "type2_1"
*.host6.app[5].destPort = 1000
*.host6.app[6].typename = "UdpBasicApp"
*.host6.app[6].destAddresses = "host8"
*.host6.app[6].source.packetNameFormat = "%M-%m-%c"
*.host6.app[6].source.displayStringTextFormat = "sent %p pk (%l)"
*.host6.app[6].messageLength = 17B
*.host6.app[6].sendInterval = 1ms
*.host6.app[6].startTime = 93ms
*.host6.app[6].stopTime = 100ms
*.host6.app[6].display-name = "type2_1"
*.host6.app[6].destPort = 1000
*.host6.app[7].typename = "UdpBasicApp"
*.host6.app[7].destAddresses = "host1"
*.host6.app[7].source.packetNameFormat = "%M-%m-%c"
*.host6.app[7].source.displayStringTextFormat = "sent %p pk (%l)"
*.host6.app[7].messageLength = 24B
*.host6.app[7].sendInterval = 1ms
*.host6.app[7].startTime = 9ms
*.host6.app[7].stopTime = 12ms
*.host6.app[7].display-name = "type2_4"
*.host6.app[7].destPort = 1003
*.host6.app[8].typename = "UdpBasicApp"
*.host6.app[8].destAddresses = "host1"
*.host6.app[8].source.packetNameFormat = "%M-%m-%c"
*.host6.app[8].source.displayStringTextFormat = "sent %p pk (%l)"
*.host6.app[8].messageLength = 24B
*.host6.app[8].sendInterval = 1ms
*.host6.app[8].startTime = 16ms
*.host6.app[8].stopTime = 32ms
*.host6.app[8].display-name = "type2_4"
*.host6.app[8].destPort = 1003
*.host6.app[9].typename = "UdpBasicApp"
*.host6.app[9].destAddresses = "host1"
*.host6.app[9].source.packetNameFormat = "%M-%m-%c"
*.host6.app[9].source.displayStringTextFormat = "sent %p pk (%l)"
*.host6.app[9].messageLength = 24B
*.host6.app[9].sendInterval = 1ms
*.host6.app[9].startTime = 38ms
*.host6.app[9].stopTime = 40ms
*.host6.app[9].display-name = "type2_4"
*.host6.app[9].destPort = 1003
*.host6.app[10].typename = "UdpBasicApp"
*.host6.app[10].destAddresses = "host1"
*.host6.app[10].source.packetNameFormat = "%M-%m-%c"
*.host6.app[10].source.displayStringTextFormat = "sent %p pk (%l)"
*.host6.app[10].messageLength = 24B
*.host6.app[10].sendInterval = 1ms
*.host6.app[10].startTime = 49ms
*.host6.app[10].stopTime = 56ms
*.host6.app[10].display-name = "type2_4"
*.host6.app[10].destPort = 1003
*.host6.app[11].typename = "UdpBasicApp"
*.host6.app[11].destAddresses = "host1"
*.host6.app[11].source.packetNameFormat = "%M-%m-%c"
*.host6.app[11].source.displayStringTextFormat = "sent %p pk (%l)"
*.host6.app[11].messageLength = 24B
*.host6.app[11].sendInterval = 1ms
*.host6.app[11].startTime = 57ms
*.host6.app[11].stopTime = 58ms
*.host6.app[11].display-name = "type2_4"
*.host6.app[11].destPort = 1003
*.host6.app[12].typename = "UdpBasicApp"
*.host6.app[12].destAddresses = "host1"
*.host6.app[12].source.packetNameFormat = "%M-%m-%c"
*.host6.app[12].source.displayStringTextFormat = "sent %p pk (%l)"
*.host6.app[12].messageLength = 24B
*.host6.app[12].sendInterval = 1ms
*.host6.app[12].startTime = 65ms
*.host6.app[12].stopTime = 67ms
*.host6.app[12].display-name = "type2_4"
*.host6.app[12].destPort = 1003
*.host6.app[13].typename = "UdpBasicApp"
*.host6.app[13].destAddresses = "host1"
*.host6.app[13].source.packetNameFormat = "%M-%m-%c"
*.host6.app[13].source.displayStringTextFormat = "sent %p pk (%l)"
*.host6.app[13].messageLength = 24B
*.host6.app[13].sendInterval = 1ms
*.host6.app[13].startTime = 80ms
*.host6.app[13].stopTime = 93ms
*.host6.app[13].display-name = "type2_4"
*.host6.app[13].destPort = 1003
*.host6.app[14].typename = "UdpBasicApp"
*.host6.app[14].destAddresses = "host1"
*.host6.app[14].source.packetNameFormat = "%M-%m-%c"
*.host6.app[14].source.displayStringTextFormat = "sent %p pk (%l)"
*.host6.app[14].messageLength = 24B
*.host6.app[14].sendInterval = 1ms
*.host6.app[14].startTime = 97ms
*.host6.app[14].stopTime = 100ms
*.host6.app[14].display-name = "type2_4"
*.host6.app[14].destPort = 1003
*.host6.app[15].typename = "UdpBasicApp"
*.host6.app[15].destAddresses = "host1"
*.host6.app[15].source.packetNameFormat = "%M-%m-%c"
*.host6.app[15].source.displayStringTextFormat = "sent %p pk (%l)"
*.host6.app[15].messageLength = 17B
*.host6.app[15].sendInterval = 1ms
*.host6.app[15].startTime = 6ms
*.host6.app[15].stopTime = 17ms
*.host6.app[15].display-name = "type2_6"
*.host6.app[15].destPort = 1004
*.host6.app[16].typename = "UdpBasicApp"
*.host6.app[16].destAddresses = "host1"
*.host6.app[16].source.packetNameFormat = "%M-%m-%c"
*.host6.app[16].source.displayStringTextFormat = "sent %p pk (%l)"
*.host6.app[16].messageLength = 17B
*.host6.app[16].sendInterval = 1ms
*.host6.app[16].startTime = 63ms
*.host6.app[16].stopTime = 70ms
*.host6.app[16].display-name = "type2_6"
*.host6.app[16].destPort = 1004
*.host6.app[17].typename = "UdpBasicApp"
*.host6.app[17].destAddresses = "host1"
*.host6.app[17].source.packetNameFormat = "%M-%m-%c"
*.host6.app[17].source.displayStringTextFormat = "sent %p pk (%l)"
*.host6.app[17].messageLength = 17B
*.host6.app[17].sendInterval = 1ms
*.host6.app[17].startTime = 74ms
*.host6.app[17].stopTime = 75ms
*.host6.app[17].display-name = "type2_6"
*.host6.app[17].destPort = 1004
*.host6.app[18].typename = "UdpBasicApp"
*.host6.app[18].destAddresses = "host1"
*.host6.app[18].source.packetNameFormat = "%M-%m-%c"
*.host6.app[18].source.displayStringTextFormat = "sent %p pk (%l)"
*.host6.app[18].messageLength = 17B
*.host6.app[18].sendInterval = 1ms
*.host6.app[18].startTime = 91ms
*.host6.app[18].stopTime = 100ms
*.host6.app[18].display-name = "type2_6"
*.host6.app[18].destPort = 1004
*.host7.numApps = 5
*.host7.app[0].typename = "UdpSinkApp"
*.host7.app[0].io.localPort = 1000
*.host7.app[1].typename = "UdpSourceApp"
*.host7.app[1].io.destAddress = "host5"
*.host7.app[1].source.packetNameFormat = "%M-%m-%c"
*.host7.app[1].source.displayStringTextFormat = "sent %p pk (%l)"
*.host7.app[1].source.packetLength = 13B
*.host7.app[1].source.productionInterval = 1ms
*.host7.app[1].display-name = "type1_3"
*.host7.app[1].io.destPort = 1000
*.host7.app[2].typename = "UdpBasicApp"
*.host7.app[2].destAddresses = "host1"
*.host7.app[2].source.packetNameFormat = "%M-%m-%c"
*.host7.app[2].source.displayStringTextFormat = "sent %p pk (%l)"
*.host7.app[2].messageLength = 15B
*.host7.app[2].sendInterval = 1ms
*.host7.app[2].startTime = 0ms
*.host7.app[2].stopTime = 5ms
*.host7.app[2].display-name = "type2_0"
*.host7.app[2].destPort = 1001
*.host7.app[3].typename = "UdpBasicApp"
*.host7.app[3].destAddresses = "host1"
*.host7.app[3].source.packetNameFormat = "%M-%m-%c"
*.host7.app[3].source.displayStringTextFormat = "sent %p pk (%l)"
*.host7.app[3].messageLength = 15B
*.host7.app[3].sendInterval = 1ms
*.host7.app[3].startTime = 7ms
*.host7.app[3].stopTime = 45ms
*.host7.app[3].display-name = "type2_0"
*.host7.app[3].destPort = 1001
*.host7.app[4].typename = "UdpBasicApp"
*.host7.app[4].destAddresses = "host1"
*.host7.app[4].source.packetNameFormat = "%M-%m-%c"
*.host7.app[4].source.displayStringTextFormat = "sent %p pk (%l)"
*.host7.app[4].messageLength = 15B
*.host7.app[4].sendInterval = 1ms
*.host7.app[4].startTime = 82ms
*.host7.app[4].stopTime = 85ms
*.host7.app[4].display-name = "type2_0"
*.host7.app[4].destPort = 1001
*.host8.numApps = 11
*.host8.app[0].typename = "UdpSourceApp"
*.host8.app[0].io.destAddress = "host0"
*.host8.app[0].source.packetNameFormat = "%M-%m-%c"
*.host8.app[0].source.displayStringTextFormat = "sent %p pk (%l)"
*.host8.app[0].source.packetLength = 17B
*.host8.app[0].source.productionInterval = 1ms
*.host8.app[0].display-name = "type1_7"
*.host8.app[0].io.destPort = 1001
*.host8.app[1].typename = "UdpSinkApp"
*.host8.app[1].io.localPort = 1000
*.host8.app[2].typename = "UdpBasicApp"
*.host8.app[2].destAddresses = "host1"
*.host8.app[2].source.packetNameFormat = "%M-%m-%c"
*.host8.app[2].source.displayStringTextFormat = "sent %p pk (%l)"
*.host8.app[2].messageLength = 18B
*.host8.app[2].sendInterval = 1ms
*.host8.app[2].startTime = 3ms
*.host8.app[2].stopTime = 30ms
*.host8.app[2].display-name = "type2_3"
*.host8.app[2].destPort = 1002
*.host8.app[3].typename = "UdpBasicApp"
*.host8.app[3].destAddresses = "host1"
*.host8.app[3].source.packetNameFormat = "%M-%m-%c"
*.host8.app[3].source.displayStringTextFormat = "sent %p pk (%l)"
*.host8.app[3].messageLength = 18B
*.host8.app[3].sendInterval = 1ms
*.host8.app[3].startTime = 34ms
*.host8.app[3].stopTime = 57ms
*.host8.app[3].display-name = "type2_3"
*.host8.app[3].destPort = 1002
*.host8.app[4].typename = "UdpBasicApp"
*.host8.app[4].destAddresses = "host1"
*.host8.app[4].source.packetNameFormat = "%M-%m-%c"
*.host8.app[4].source.displayStringTextFormat = "sent %p pk (%l)"
*.host8.app[4].messageLength = 18B
*.host8.app[4].sendInterval = 1ms
*.host8.app[4].startTime = 64ms
*.host8.app[4].stopTime = 71ms
*.host8.app[4].display-name = "type2_3"
*.host8.app[4].destPort = 1002
*.host8.app[5].typename = "UdpBasicApp"
*.host8.app[5].destAddresses = "host1"
*.host8.app[5].source.packetNameFormat = "%M-%m-%c"
*.host8.app[5].source.displayStringTextFormat = "sent %p pk (%l)"
*.host8.app[5].messageLength = 18B
*.host8.app[5].sendInterval = 1ms
*.host8.app[5].startTime = 74ms
*.host8.app[5].stopTime = 76ms
*.host8.app[5].display-name = "type2_3"
*.host8.app[5].destPort = 1002
*.host8.app[6].typename = "UdpBasicApp"
*.host8.app[6].destAddresses = "host1"
*.host8.app[6].source.packetNameFormat = "%M-%m-%c"
*.host8.app[6].source.displayStringTextFormat = "sent %p pk (%l)"
*.host8.app[6].messageLength = 18B
*.host8.app[6].sendInterval = 1ms
*.host8.app[6].startTime = 83ms
*.host8.app[6].stopTime = 92ms
*.host8.app[6].display-name = "type2_3"
*.host8.app[6].destPort = 1002
*.host8.app[7].typename = "UdpSinkApp"
*.host8.app[7].io.localPort = 1001
*.host8.app[8].typename = "UdpBasicApp"
*.host8.app[8].destAddresses = "host1"
*.host8.app[8].source.packetNameFormat = "%M-%m-%c"
*.host8.app[8].source.displayStringTextFormat = "sent %p pk (%l)"
*.host8.app[8].messageLength = 21B
*.host8.app[8].sendInterval = 1ms
*.host8.app[8].startTime = 8ms
*.host8.app[8].stopTime = 59ms
*.host8.app[8].display-name = "type2_7"
*.host8.app[8].destPort = 1005
*.host8.app[9].typename = "UdpBasicApp"
*.host8.app[9].destAddresses = "host1"
*.host8.app[9].source.packetNameFormat = "%M-%m-%c"
*.host8.app[9].source.displayStringTextFormat = "sent %p pk (%l)"
*.host8.app[9].messageLength = 21B
*.host8.app[9].sendInterval = 1ms
*.host8.app[9].startTime = 78ms
*.host8.app[9].stopTime = 82ms
*.host8.app[9].display-name = "type2_7"
*.host8.app[9].destPort = 1005
*.host8.app[10].typename = "UdpBasicApp"
*.host8.app[10].destAddresses = "host1"
*.host8.app[10].source.packetNameFormat = "%M-%m-%c"
*.host8.app[10].source.displayStringTextFormat = "sent %p pk (%l)"
*.host8.app[10].messageLength = 21B
*.host8.app[10].sendInterval = 1ms
*.host8.app[10].startTime = 87ms
*.host8.app[10].stopTime = 100ms
*.host8.app[10].display-name = "type2_7"
*.host8.app[10].destPort = 1005
*.host9.numApps = 1
*.host9.app[0].typename = "UdpSinkApp"
*.host9.app[0].io.localPort = 1000
*.streamRedundancyConfigurator.configuration = [
	{
		name: "S1-0",
		packetFilter: "*-type1_0-*",
		source: "host4",
		destination: "host9",
		trees: [[["host4", "switch4", "switch9", "host9"]]]
	},
	{
		name: "S1-1",
		packetFilter: "*-type1_1-*",
		source: "host0",
		destination: "host7",
		trees: [[["host0", "switch0", "switch7", "host7"]]]
	},
	{
		name: "S1-2",
		packetFilter: "*-type1_2-*",
		source: "host3",
		destination: "host1",
		trees: [[["host3",
	 "switch3",
	 "switch7",
	 "switch0",
	 "switch4",
	 "switch8",
	 "switch1",
	 "host1"]]]
	},
	{
		name: "S1-3",
		packetFilter: "*-type1_3-*",
		source: "host7",
		destination: "host5",
		trees: [[["host7", "switch7", "switch0", "switch4", "switch5", "host5"]]]
	},
	{
		name: "S1-4",
		packetFilter: "*-type1_4-*",
		source: "host1",
		destination: "host3",
		trees: [[["host1", "switch1", "switch0", "switch7", "switch3", "host3"]]]
	},
	{
		name: "S1-5",
		packetFilter: "*-type1_5-*",
		source: "host5",
		destination: "host6",
		trees: [[["host5", "switch5", "switch0", "switch7", "switch3", "switch6", "host6"]]]
	},
	{
		name: "S1-6",
		packetFilter: "*-type1_6-*",
		source: "host5",
		destination: "host0",
		trees: [[["host5", "switch5", "switch0", "host0"]]]
	},
	{
		name: "S1-7",
		packetFilter: "*-type1_7-*",
		source: "host8",
		destination: "host0",
		trees: [[["host8", "switch8", "switch1", "switch0", "host0"]]]
	},
	{
		name: "S2-0",
		packetFilter: "*-type2_0-*",
		source: "host7",
		destination: "host1",
		trees: [[["host7", "switch7", "switch1", "host1"]]]
	},
	{
		name: "S2-1",
		packetFilter: "*-type2_1-*",
		source: "host6",
		destination: "host8",
		trees: [[["host6", "switch6", "switch4", "switch8", "host8"]]]
	},
	{
		name: "S2-2",
		packetFilter: "*-type2_2-*",
		source: "host4",
		destination: "host3",
		trees: [[["host4", "switch4", "switch8", "switch0", "switch3", "host3"]]]
	},
	{
		name: "S2-3",
		packetFilter: "*-type2_3-*",
		source: "host8",
		destination: "host1",
		trees: [[["host8",
	 "switch8",
	 "switch0",
	 "switch3",
	 "switch2",
	 "switch5",
	 "switch1",
	 "host1"]]]
	},
	{
		name: "S2-4",
		packetFilter: "*-type2_4-*",
		source: "host6",
		destination: "host1",
		trees: [[["host6", "switch6", "switch7", "switch1", "host1"]]]
	},
	{
		name: "S2-5",
		packetFilter: "*-type2_5-*",
		source: "host0",
		destination: "host8",
		trees: [[["host0",
	 "switch0",
	 "switch3",
	 "switch2",
	 "switch5",
	 "switch1",
	 "switch6",
	 "switch4",
	 "switch8",
	 "host8"]]]
	},
	{
		name: "S2-6",
		packetFilter: "*-type2_6-*",
		source: "host6",
		destination: "host1",
		trees: [[["host6", "switch6", "switch7", "switch1", "host1"]]]
	},
	{
		name: "S2-7",
		packetFilter: "*-type2_7-*",
		source: "host8",
		destination: "host1",
		trees: [[["host8",
	 "switch8",
	 "switch0",
	 "switch3",
	 "switch2",
	 "switch5",
	 "switch1",
	 "host1"]]]
	}]
	

