[General]
network = TSN_multipath
sim-time-limit = 10ms
*.macForwardingTableConfigurator.typename = ""
*.*.hasStreamRedundancy = true
*.*.bridging.streamRelay.typename = "StreamRelayLayer"
*.*.bridging.streamCoder.typename = "StreamCoderLayer"
*.streamRedundancyConfigurator.typename = "StreamRedundancyConfigurator"
*.host0.eth[0].bitrate = 1000Mbps
*.switch0.eth[0].bitrate = 1000Mbps
*.switch0.eth[1].bitrate = 1300Mbps
*.switch0.eth[2].bitrate = 1300Mbps
*.switch0.eth[3].bitrate = 2400Mbps
*.host1.eth[0].bitrate = 1000Mbps
*.switch1.eth[0].bitrate = 1000Mbps
*.switch1.eth[1].bitrate = 1300Mbps
*.switch1.eth[2].bitrate = 2300Mbps
*.switch1.eth[3].bitrate = 1800Mbps
*.switch1.eth[4].bitrate = 2400Mbps
*.switch1.eth[5].bitrate = 1600Mbps
*.host2.eth[0].bitrate = 1000Mbps
*.switch2.eth[0].bitrate = 1000Mbps
*.switch2.eth[1].bitrate = 1300Mbps
*.switch2.eth[2].bitrate = 2400Mbps
*.switch2.eth[3].bitrate = 2400Mbps
*.host3.eth[0].bitrate = 1000Mbps
*.switch3.eth[0].bitrate = 1000Mbps
*.switch3.eth[1].bitrate = 2300Mbps
*.switch3.eth[2].bitrate = 1600Mbps
*.host4.eth[0].bitrate = 1000Mbps
*.switch4.eth[0].bitrate = 1000Mbps
*.switch4.eth[1].bitrate = 1800Mbps
*.switch4.eth[2].bitrate = 2400Mbps
*.switch4.eth[3].bitrate = 2400Mbps
*.host0.numApps = 2
*.host0.app[0].typename = "UdpSourceApp"
*.host0.app[0].io.destAddress = "host4"
*.host0.app[0].source.packetNameFormat = "%M-%m-%c"
*.host0.app[0].source.displayStringTextFormat = "sent %p pk (%l)"
*.host0.app[0].source.packetLength = 17B
*.host0.app[0].source.productionInterval = 1ms
*.host0.app[0].display-name = "type1_0"
*.host0.app[0].io.destPort = 1000
*.host0.app[1].typename = "UdpSinkApp"
*.host0.app[1].io.localPort = 1000
*.host1.numApps = 0
*.host2.numApps = 12
*.host2.app[0].typename = "UdpBasicApp"
*.host2.app[0].destAddresses = "host3"
*.host2.app[0].source.packetNameFormat = "%M-%m-%c"
*.host2.app[0].source.displayStringTextFormat = "sent %p pk (%l)"
*.host2.app[0].messageLength = 16B
*.host2.app[0].sendInterval = 1ms
*.host2.app[0].startTime = 100us
*.host2.app[0].stopTime = 400us
*.host2.app[0].display-name = "type2_0"
*.host2.app[0].destPort = 1000
*.host2.app[1].typename = "UdpBasicApp"
*.host2.app[1].destAddresses = "host3"
*.host2.app[1].source.packetNameFormat = "%M-%m-%c"
*.host2.app[1].source.displayStringTextFormat = "sent %p pk (%l)"
*.host2.app[1].messageLength = 16B
*.host2.app[1].sendInterval = 1ms
*.host2.app[1].startTime = 900us
*.host2.app[1].stopTime = 1800us
*.host2.app[1].display-name = "type2_0"
*.host2.app[1].destPort = 1000
*.host2.app[2].typename = "UdpBasicApp"
*.host2.app[2].destAddresses = "host3"
*.host2.app[2].source.packetNameFormat = "%M-%m-%c"
*.host2.app[2].source.displayStringTextFormat = "sent %p pk (%l)"
*.host2.app[2].messageLength = 16B
*.host2.app[2].sendInterval = 1ms
*.host2.app[2].startTime = 2400us
*.host2.app[2].stopTime = 2800us
*.host2.app[2].display-name = "type2_0"
*.host2.app[2].destPort = 1000
*.host2.app[3].typename = "UdpBasicApp"
*.host2.app[3].destAddresses = "host3"
*.host2.app[3].source.packetNameFormat = "%M-%m-%c"
*.host2.app[3].source.displayStringTextFormat = "sent %p pk (%l)"
*.host2.app[3].messageLength = 16B
*.host2.app[3].sendInterval = 1ms
*.host2.app[3].startTime = 3200us
*.host2.app[3].stopTime = 4300us
*.host2.app[3].display-name = "type2_0"
*.host2.app[3].destPort = 1000
*.host2.app[4].typename = "UdpBasicApp"
*.host2.app[4].destAddresses = "host3"
*.host2.app[4].source.packetNameFormat = "%M-%m-%c"
*.host2.app[4].source.displayStringTextFormat = "sent %p pk (%l)"
*.host2.app[4].messageLength = 16B
*.host2.app[4].sendInterval = 1ms
*.host2.app[4].startTime = 4700us
*.host2.app[4].stopTime = 5900us
*.host2.app[4].display-name = "type2_0"
*.host2.app[4].destPort = 1000
*.host2.app[5].typename = "UdpBasicApp"
*.host2.app[5].destAddresses = "host3"
*.host2.app[5].source.packetNameFormat = "%M-%m-%c"
*.host2.app[5].source.displayStringTextFormat = "sent %p pk (%l)"
*.host2.app[5].messageLength = 16B
*.host2.app[5].sendInterval = 1ms
*.host2.app[5].startTime = 7400us
*.host2.app[5].stopTime = 8100us
*.host2.app[5].display-name = "type2_0"
*.host2.app[5].destPort = 1000
*.host2.app[6].typename = "UdpBasicApp"
*.host2.app[6].destAddresses = "host3"
*.host2.app[6].source.packetNameFormat = "%M-%m-%c"
*.host2.app[6].source.displayStringTextFormat = "sent %p pk (%l)"
*.host2.app[6].messageLength = 16B
*.host2.app[6].sendInterval = 1ms
*.host2.app[6].startTime = 9400us
*.host2.app[6].stopTime = 10000us
*.host2.app[6].display-name = "type2_0"
*.host2.app[6].destPort = 1000
*.host2.app[7].typename = "UdpBasicApp"
*.host2.app[7].destAddresses = "host4"
*.host2.app[7].source.packetNameFormat = "%M-%m-%c"
*.host2.app[7].source.displayStringTextFormat = "sent %p pk (%l)"
*.host2.app[7].messageLength = 15B
*.host2.app[7].sendInterval = 1ms
*.host2.app[7].startTime = 700us
*.host2.app[7].stopTime = 1300us
*.host2.app[7].display-name = "type2_1"
*.host2.app[7].destPort = 1001
*.host2.app[8].typename = "UdpBasicApp"
*.host2.app[8].destAddresses = "host4"
*.host2.app[8].source.packetNameFormat = "%M-%m-%c"
*.host2.app[8].source.displayStringTextFormat = "sent %p pk (%l)"
*.host2.app[8].messageLength = 15B
*.host2.app[8].sendInterval = 1ms
*.host2.app[8].startTime = 3300us
*.host2.app[8].stopTime = 5900us
*.host2.app[8].display-name = "type2_1"
*.host2.app[8].destPort = 1001
*.host2.app[9].typename = "UdpBasicApp"
*.host2.app[9].destAddresses = "host4"
*.host2.app[9].source.packetNameFormat = "%M-%m-%c"
*.host2.app[9].source.displayStringTextFormat = "sent %p pk (%l)"
*.host2.app[9].messageLength = 15B
*.host2.app[9].sendInterval = 1ms
*.host2.app[9].startTime = 6600us
*.host2.app[9].stopTime = 8200us
*.host2.app[9].display-name = "type2_1"
*.host2.app[9].destPort = 1001
*.host2.app[10].typename = "UdpBasicApp"
*.host2.app[10].destAddresses = "host4"
*.host2.app[10].source.packetNameFormat = "%M-%m-%c"
*.host2.app[10].source.displayStringTextFormat = "sent %p pk (%l)"
*.host2.app[10].messageLength = 15B
*.host2.app[10].sendInterval = 1ms
*.host2.app[10].startTime = 8500us
*.host2.app[10].stopTime = 9400us
*.host2.app[10].display-name = "type2_1"
*.host2.app[10].destPort = 1001
*.host2.app[11].typename = "UdpBasicApp"
*.host2.app[11].destAddresses = "host4"
*.host2.app[11].source.packetNameFormat = "%M-%m-%c"
*.host2.app[11].source.displayStringTextFormat = "sent %p pk (%l)"
*.host2.app[11].messageLength = 15B
*.host2.app[11].sendInterval = 1ms
*.host2.app[11].startTime = 9500us
*.host2.app[11].stopTime = 10000us
*.host2.app[11].display-name = "type2_1"
*.host2.app[11].destPort = 1001
*.host3.numApps = 6
*.host3.app[0].typename = "UdpSinkApp"
*.host3.app[0].io.localPort = 1000
*.host3.app[1].typename = "UdpBasicApp"
*.host3.app[1].destAddresses = "host4"
*.host3.app[1].source.packetNameFormat = "%M-%m-%c"
*.host3.app[1].source.displayStringTextFormat = "sent %p pk (%l)"
*.host3.app[1].messageLength = 15B
*.host3.app[1].sendInterval = 1ms
*.host3.app[1].startTime = 500us
*.host3.app[1].stopTime = 1300us
*.host3.app[1].display-name = "type2_3"
*.host3.app[1].destPort = 1002
*.host3.app[2].typename = "UdpBasicApp"
*.host3.app[2].destAddresses = "host4"
*.host3.app[2].source.packetNameFormat = "%M-%m-%c"
*.host3.app[2].source.displayStringTextFormat = "sent %p pk (%l)"
*.host3.app[2].messageLength = 15B
*.host3.app[2].sendInterval = 1ms
*.host3.app[2].startTime = 1900us
*.host3.app[2].stopTime = 3300us
*.host3.app[2].display-name = "type2_3"
*.host3.app[2].destPort = 1002
*.host3.app[3].typename = "UdpBasicApp"
*.host3.app[3].destAddresses = "host4"
*.host3.app[3].source.packetNameFormat = "%M-%m-%c"
*.host3.app[3].source.displayStringTextFormat = "sent %p pk (%l)"
*.host3.app[3].messageLength = 15B
*.host3.app[3].sendInterval = 1ms
*.host3.app[3].startTime = 3600us
*.host3.app[3].stopTime = 7900us
*.host3.app[3].display-name = "type2_3"
*.host3.app[3].destPort = 1002
*.host3.app[4].typename = "UdpBasicApp"
*.host3.app[4].destAddresses = "host4"
*.host3.app[4].source.packetNameFormat = "%M-%m-%c"
*.host3.app[4].source.displayStringTextFormat = "sent %p pk (%l)"
*.host3.app[4].messageLength = 15B
*.host3.app[4].sendInterval = 1ms
*.host3.app[4].startTime = 8100us
*.host3.app[4].stopTime = 8900us
*.host3.app[4].display-name = "type2_3"
*.host3.app[4].destPort = 1002
*.host3.app[5].typename = "UdpBasicApp"
*.host3.app[5].destAddresses = "host4"
*.host3.app[5].source.packetNameFormat = "%M-%m-%c"
*.host3.app[5].source.displayStringTextFormat = "sent %p pk (%l)"
*.host3.app[5].messageLength = 15B
*.host3.app[5].sendInterval = 1ms
*.host3.app[5].startTime = 9800us
*.host3.app[5].stopTime = 10000us
*.host3.app[5].display-name = "type2_3"
*.host3.app[5].destPort = 1002
*.host4.numApps = 10
*.host4.app[0].typename = "UdpSinkApp"
*.host4.app[0].io.localPort = 1000
*.host4.app[1].typename = "UdpSinkApp"
*.host4.app[1].io.localPort = 1001
*.host4.app[2].typename = "UdpBasicApp"
*.host4.app[2].destAddresses = "host0"
*.host4.app[2].source.packetNameFormat = "%M-%m-%c"
*.host4.app[2].source.displayStringTextFormat = "sent %p pk (%l)"
*.host4.app[2].messageLength = 23B
*.host4.app[2].sendInterval = 1ms
*.host4.app[2].startTime = 0us
*.host4.app[2].stopTime = 2100us
*.host4.app[2].display-name = "type2_2"
*.host4.app[2].destPort = 1000
*.host4.app[3].typename = "UdpBasicApp"
*.host4.app[3].destAddresses = "host0"
*.host4.app[3].source.packetNameFormat = "%M-%m-%c"
*.host4.app[3].source.displayStringTextFormat = "sent %p pk (%l)"
*.host4.app[3].messageLength = 23B
*.host4.app[3].sendInterval = 1ms
*.host4.app[3].startTime = 3100us
*.host4.app[3].stopTime = 3700us
*.host4.app[3].display-name = "type2_2"
*.host4.app[3].destPort = 1000
*.host4.app[4].typename = "UdpBasicApp"
*.host4.app[4].destAddresses = "host0"
*.host4.app[4].source.packetNameFormat = "%M-%m-%c"
*.host4.app[4].source.displayStringTextFormat = "sent %p pk (%l)"
*.host4.app[4].messageLength = 23B
*.host4.app[4].sendInterval = 1ms
*.host4.app[4].startTime = 3800us
*.host4.app[4].stopTime = 4000us
*.host4.app[4].display-name = "type2_2"
*.host4.app[4].destPort = 1000
*.host4.app[5].typename = "UdpBasicApp"
*.host4.app[5].destAddresses = "host0"
*.host4.app[5].source.packetNameFormat = "%M-%m-%c"
*.host4.app[5].source.displayStringTextFormat = "sent %p pk (%l)"
*.host4.app[5].messageLength = 23B
*.host4.app[5].sendInterval = 1ms
*.host4.app[5].startTime = 4200us
*.host4.app[5].stopTime = 4800us
*.host4.app[5].display-name = "type2_2"
*.host4.app[5].destPort = 1000
*.host4.app[6].typename = "UdpBasicApp"
*.host4.app[6].destAddresses = "host0"
*.host4.app[6].source.packetNameFormat = "%M-%m-%c"
*.host4.app[6].source.displayStringTextFormat = "sent %p pk (%l)"
*.host4.app[6].messageLength = 23B
*.host4.app[6].sendInterval = 1ms
*.host4.app[6].startTime = 5700us
*.host4.app[6].stopTime = 6500us
*.host4.app[6].display-name = "type2_2"
*.host4.app[6].destPort = 1000
*.host4.app[7].typename = "UdpBasicApp"
*.host4.app[7].destAddresses = "host0"
*.host4.app[7].source.packetNameFormat = "%M-%m-%c"
*.host4.app[7].source.displayStringTextFormat = "sent %p pk (%l)"
*.host4.app[7].messageLength = 23B
*.host4.app[7].sendInterval = 1ms
*.host4.app[7].startTime = 6700us
*.host4.app[7].stopTime = 7100us
*.host4.app[7].display-name = "type2_2"
*.host4.app[7].destPort = 1000
*.host4.app[8].typename = "UdpBasicApp"
*.host4.app[8].destAddresses = "host0"
*.host4.app[8].source.packetNameFormat = "%M-%m-%c"
*.host4.app[8].source.displayStringTextFormat = "sent %p pk (%l)"
*.host4.app[8].messageLength = 23B
*.host4.app[8].sendInterval = 1ms
*.host4.app[8].startTime = 9100us
*.host4.app[8].stopTime = 10000us
*.host4.app[8].display-name = "type2_2"
*.host4.app[8].destPort = 1000
*.host4.app[9].typename = "UdpSinkApp"
*.host4.app[9].io.localPort = 1002
*.streamRedundancyConfigurator.configuration = [
	{
		name: "S1-0",
		packetFilter: "*-type1_0-*",
		source: "host0",
		destination: "host4",
		trees: [[["host0", "switch0", "switch1", "switch4", "host4"]]]
	},
	{
		name: "S2-0",
		packetFilter: "*-type2_0-*",
		source: "host2",
		destination: "host3",
		trees: [[["host2", "switch2", "switch1", "switch3", "host3"]]]
	},
	{
		name: "S2-1",
		packetFilter: "*-type2_1-*",
		source: "host2",
		destination: "host4",
		trees: [[["host2", "switch2", "switch1", "switch4", "host4"]]]
	},
	{
		name: "S2-2",
		packetFilter: "*-type2_2-*",
		source: "host4",
		destination: "host0",
		trees: [[["host4", "switch4", "switch0", "host0"]]]
	},
	{
		name: "S2-3",
		packetFilter: "*-type2_3-*",
		source: "host3",
		destination: "host4",
		trees: [[["host3", "switch3", "switch1", "switch4", "host4"]]]
	}]
	

