
[General]
network = TSN_multipath
sim-time-limit = 10ms

# disable automatic MAC forwarding table configuration
*.macForwardingTableConfigurator.typename = ""

# enable frame replication and elimination
*.*.hasStreamRedundancy = true

# enable stream policing in layer 2
*.*.bridging.streamRelay.typename = "StreamRelayLayer"
*.*.bridging.streamCoder.typename = "StreamCoderLayer"

# enable automatic stream redundancy configurator
*.streamRedundancyConfigurator.typename = "StreamRedundancyConfigurator"

*.host0.eth[0].bitrate = 100Mbps
*.switch0.eth[0].bitrate = 100Mbps
*.switch0.eth[1].bitrate = 160Mbps
*.switch0.eth[2].bitrate = 200Mbps
*.switch0.eth[3].bitrate = 230Mbps
*.switch0.eth[4].bitrate = 220Mbps
*.switch0.eth[5].bitrate = 190Mbps
*.switch0.eth[6].bitrate = 200Mbps
*.host1.eth[0].bitrate = 100Mbps
*.switch1.eth[0].bitrate = 100Mbps
*.switch1.eth[1].bitrate = 160Mbps
*.switch1.eth[2].bitrate = 210Mbps
*.switch1.eth[3].bitrate = 130Mbps
*.switch1.eth[4].bitrate = 180Mbps
*.switch1.eth[5].bitrate = 160Mbps
*.host2.eth[0].bitrate = 100Mbps
*.switch2.eth[0].bitrate = 100Mbps
*.switch2.eth[1].bitrate = 220Mbps
*.switch2.eth[2].bitrate = 160Mbps
*.switch2.eth[3].bitrate = 170Mbps
*.switch2.eth[4].bitrate = 210Mbps
*.switch2.eth[5].bitrate = 240Mbps
*.switch2.eth[6].bitrate = 140Mbps
*.switch2.eth[7].bitrate = 220Mbps
*.host3.eth[0].bitrate = 100Mbps
*.switch3.eth[0].bitrate = 100Mbps
*.switch3.eth[1].bitrate = 200Mbps
*.switch3.eth[2].bitrate = 210Mbps
*.switch3.eth[3].bitrate = 160Mbps
*.switch3.eth[4].bitrate = 150Mbps
*.switch3.eth[5].bitrate = 240Mbps
*.switch3.eth[6].bitrate = 190Mbps
*.host4.eth[0].bitrate = 100Mbps
*.switch4.eth[0].bitrate = 100Mbps
*.switch4.eth[1].bitrate = 170Mbps
*.switch4.eth[2].bitrate = 210Mbps
*.switch4.eth[3].bitrate = 210Mbps
*.switch4.eth[4].bitrate = 160Mbps
*.switch4.eth[5].bitrate = 140Mbps
*.host5.eth[0].bitrate = 100Mbps
*.switch5.eth[0].bitrate = 100Mbps
*.switch5.eth[1].bitrate = 210Mbps
*.switch5.eth[2].bitrate = 240Mbps
*.switch5.eth[3].bitrate = 150Mbps
*.switch5.eth[4].bitrate = 200Mbps
*.switch5.eth[5].bitrate = 160Mbps
*.host6.eth[0].bitrate = 100Mbps
*.switch6.eth[0].bitrate = 100Mbps
*.switch6.eth[1].bitrate = 230Mbps
*.switch6.eth[2].bitrate = 150Mbps
*.switch6.eth[3].bitrate = 190Mbps
*.switch6.eth[4].bitrate = 130Mbps
*.switch6.eth[5].bitrate = 190Mbps
*.switch6.eth[6].bitrate = 150Mbps
*.switch6.eth[7].bitrate = 130Mbps
*.switch6.eth[8].bitrate = 120Mbps
*.switch6.eth[9].bitrate = 220Mbps
*.host7.eth[0].bitrate = 100Mbps
*.switch7.eth[0].bitrate = 100Mbps
*.switch7.eth[1].bitrate = 160Mbps
*.switch7.eth[2].bitrate = 130Mbps
*.switch7.eth[3].bitrate = 200Mbps
*.switch7.eth[4].bitrate = 180Mbps
*.switch7.eth[5].bitrate = 240Mbps
*.switch7.eth[6].bitrate = 140Mbps
*.switch7.eth[7].bitrate = 160Mbps
*.switch7.eth[8].bitrate = 220Mbps
*.switch7.eth[9].bitrate = 120Mbps
*.host8.eth[0].bitrate = 100Mbps
*.switch8.eth[0].bitrate = 100Mbps
*.switch8.eth[1].bitrate = 160Mbps
*.switch8.eth[2].bitrate = 140Mbps
*.switch8.eth[3].bitrate = 200Mbps
*.switch8.eth[4].bitrate = 120Mbps
*.host9.eth[0].bitrate = 100Mbps
*.switch9.eth[0].bitrate = 100Mbps
*.switch9.eth[1].bitrate = 120Mbps
*.switch9.eth[2].bitrate = 220Mbps
*.switch9.eth[3].bitrate = 160Mbps
*.switch9.eth[4].bitrate = 220Mbps
*.switch9.eth[5].bitrate = 160Mbps
*.switch9.eth[6].bitrate = 220Mbps

# Apps
*.host7.numApps = 1
*.host7.app[0].typename = "UdpSourceApp"
*.host7.app[0].io.destAddress = "host0"
*.host7.app[0].source.packetNameFormat = "%M-%m-%c"
*.host7.app[0].source.displayStringTextFormat = "sent %p pk (%l)"
*.host7.app[0].source.packetLength = 20B
*.host7.app[0].source.productionInterval = 100us
*.host7.app[0].display-name = "type1_2"
*.host7.app[0].io.destPort = 1000

*.host0.numApps = 1
*.host0.app[0].typename = "UdpSinkApp"
*.host0.app[0].io.localPort = 1000

# seamless stream redundancy configuration
*.streamRedundancyConfigurator.configuration = [
    {
        name: "shortest_path", 
        packetFilter: "*-type1_2-*", 
        source: "host7", 
        destination: "host0",
        trees: [[["host7", "switch7", "switch0", "host0"]]]
    }]
