[General]
network = TSN_multipath
sim-time-limit = 100ms
*.macForwardingTableConfigurator.typename = ""
*.*.hasStreamRedundancy = true
*.*.bridging.streamRelay.typename = "StreamRelayLayer"
*.*.bridging.streamCoder.typename = "StreamCoderLayer"
*.streamRedundancyConfigurator.typename = "StreamRedundancyConfigurator"
*.host0.eth[0].bitrate = 1000Mbps
*.switch0.eth[0].bitrate = 1000Mbps
*.switch0.eth[1].bitrate = 1600Mbps
*.switch0.eth[2].bitrate = 2400Mbps
*.switch0.eth[3].bitrate = 1400Mbps
*.switch0.eth[4].bitrate = 2100Mbps
*.switch0.eth[5].bitrate = 1700Mbps
*.switch0.eth[6].bitrate = 1300Mbps
*.switch0.eth[7].bitrate = 1200Mbps
*.switch0.eth[8].bitrate = 1600Mbps
*.switch0.eth[9].bitrate = 2300Mbps
*.switch0.eth[10].bitrate = 1300Mbps
*.host1.eth[0].bitrate = 1000Mbps
*.switch1.eth[0].bitrate = 1000Mbps
*.switch1.eth[1].bitrate = 2400Mbps
*.switch1.eth[2].bitrate = 2200Mbps
*.switch1.eth[3].bitrate = 1800Mbps
*.switch1.eth[4].bitrate = 2400Mbps
*.switch1.eth[5].bitrate = 1900Mbps
*.switch1.eth[6].bitrate = 1800Mbps
*.switch1.eth[7].bitrate = 1700Mbps
*.switch1.eth[8].bitrate = 1600Mbps
*.switch1.eth[9].bitrate = 2300Mbps
*.switch1.eth[10].bitrate = 2000Mbps
*.switch1.eth[11].bitrate = 2100Mbps
*.switch1.eth[12].bitrate = 1700Mbps
*.switch1.eth[13].bitrate = 2300Mbps
*.switch1.eth[14].bitrate = 2200Mbps
*.switch1.eth[15].bitrate = 2400Mbps
*.host2.eth[0].bitrate = 1000Mbps
*.switch2.eth[0].bitrate = 1000Mbps
*.switch2.eth[1].bitrate = 2200Mbps
*.switch2.eth[2].bitrate = 1200Mbps
*.switch2.eth[3].bitrate = 2300Mbps
*.switch2.eth[4].bitrate = 1500Mbps
*.switch2.eth[5].bitrate = 2200Mbps
*.switch2.eth[6].bitrate = 1900Mbps
*.switch2.eth[7].bitrate = 1500Mbps
*.switch2.eth[8].bitrate = 2200Mbps
*.switch2.eth[9].bitrate = 2100Mbps
*.switch2.eth[10].bitrate = 2200Mbps
*.switch2.eth[11].bitrate = 1200Mbps
*.switch2.eth[12].bitrate = 2000Mbps
*.host3.eth[0].bitrate = 1000Mbps
*.switch3.eth[0].bitrate = 1000Mbps
*.switch3.eth[1].bitrate = 1600Mbps
*.switch3.eth[2].bitrate = 1800Mbps
*.switch3.eth[3].bitrate = 1700Mbps
*.switch3.eth[4].bitrate = 1700Mbps
*.switch3.eth[5].bitrate = 1300Mbps
*.switch3.eth[6].bitrate = 1300Mbps
*.switch3.eth[7].bitrate = 1400Mbps
*.switch3.eth[8].bitrate = 1600Mbps
*.switch3.eth[9].bitrate = 1600Mbps
*.switch3.eth[10].bitrate = 1500Mbps
*.switch3.eth[11].bitrate = 1400Mbps
*.switch3.eth[12].bitrate = 1500Mbps
*.switch3.eth[13].bitrate = 2400Mbps
*.host4.eth[0].bitrate = 1000Mbps
*.switch4.eth[0].bitrate = 1000Mbps
*.switch4.eth[1].bitrate = 2400Mbps
*.switch4.eth[2].bitrate = 1200Mbps
*.switch4.eth[3].bitrate = 1400Mbps
*.switch4.eth[4].bitrate = 1500Mbps
*.switch4.eth[5].bitrate = 1900Mbps
*.switch4.eth[6].bitrate = 1200Mbps
*.switch4.eth[7].bitrate = 2300Mbps
*.switch4.eth[8].bitrate = 1900Mbps
*.switch4.eth[9].bitrate = 1700Mbps
*.switch4.eth[10].bitrate = 1700Mbps
*.switch4.eth[11].bitrate = 1400Mbps
*.switch4.eth[12].bitrate = 1800Mbps
*.host5.eth[0].bitrate = 1000Mbps
*.switch5.eth[0].bitrate = 1000Mbps
*.switch5.eth[1].bitrate = 2300Mbps
*.switch5.eth[2].bitrate = 1900Mbps
*.switch5.eth[3].bitrate = 2100Mbps
*.switch5.eth[4].bitrate = 2100Mbps
*.switch5.eth[5].bitrate = 1900Mbps
*.switch5.eth[6].bitrate = 1700Mbps
*.switch5.eth[7].bitrate = 1400Mbps
*.switch5.eth[8].bitrate = 1400Mbps
*.switch5.eth[9].bitrate = 2300Mbps
*.switch5.eth[10].bitrate = 1400Mbps
*.switch5.eth[11].bitrate = 1300Mbps
*.switch5.eth[12].bitrate = 1500Mbps
*.switch5.eth[13].bitrate = 2100Mbps
*.switch5.eth[14].bitrate = 2200Mbps
*.switch5.eth[15].bitrate = 1200Mbps
*.switch5.eth[16].bitrate = 1300Mbps
*.switch5.eth[17].bitrate = 1700Mbps
*.switch5.eth[18].bitrate = 1600Mbps
*.host6.eth[0].bitrate = 1000Mbps
*.switch6.eth[0].bitrate = 1000Mbps
*.switch6.eth[1].bitrate = 1900Mbps
*.switch6.eth[2].bitrate = 1700Mbps
*.switch6.eth[3].bitrate = 1700Mbps
*.switch6.eth[4].bitrate = 1700Mbps
*.switch6.eth[5].bitrate = 2200Mbps
*.switch6.eth[6].bitrate = 1700Mbps
*.switch6.eth[7].bitrate = 2200Mbps
*.switch6.eth[8].bitrate = 2000Mbps
*.switch6.eth[9].bitrate = 2100Mbps
*.switch6.eth[10].bitrate = 1400Mbps
*.switch6.eth[11].bitrate = 1900Mbps
*.switch6.eth[12].bitrate = 2000Mbps
*.switch6.eth[13].bitrate = 2300Mbps
*.switch6.eth[14].bitrate = 1900Mbps
*.switch6.eth[15].bitrate = 1800Mbps
*.switch6.eth[16].bitrate = 1200Mbps
*.switch6.eth[17].bitrate = 1900Mbps
*.switch6.eth[18].bitrate = 1200Mbps
*.host7.eth[0].bitrate = 1000Mbps
*.switch7.eth[0].bitrate = 1000Mbps
*.switch7.eth[1].bitrate = 1800Mbps
*.switch7.eth[2].bitrate = 1500Mbps
*.switch7.eth[3].bitrate = 1700Mbps
*.switch7.eth[4].bitrate = 2000Mbps
*.switch7.eth[5].bitrate = 2400Mbps
*.switch7.eth[6].bitrate = 2300Mbps
*.switch7.eth[7].bitrate = 1700Mbps
*.host8.eth[0].bitrate = 1000Mbps
*.switch8.eth[0].bitrate = 1000Mbps
*.switch8.eth[1].bitrate = 1700Mbps
*.switch8.eth[2].bitrate = 1300Mbps
*.switch8.eth[3].bitrate = 1200Mbps
*.switch8.eth[4].bitrate = 1400Mbps
*.switch8.eth[5].bitrate = 2100Mbps
*.switch8.eth[6].bitrate = 2400Mbps
*.switch8.eth[7].bitrate = 1300Mbps
*.switch8.eth[8].bitrate = 2300Mbps
*.switch8.eth[9].bitrate = 1200Mbps
*.switch8.eth[10].bitrate = 1400Mbps
*.switch8.eth[11].bitrate = 1700Mbps
*.switch8.eth[12].bitrate = 1200Mbps
*.switch8.eth[13].bitrate = 1200Mbps
*.switch8.eth[14].bitrate = 2100Mbps
*.switch8.eth[15].bitrate = 1700Mbps
*.switch8.eth[16].bitrate = 2000Mbps
*.switch8.eth[17].bitrate = 1400Mbps
*.switch8.eth[18].bitrate = 1300Mbps
*.switch8.eth[19].bitrate = 2300Mbps
*.switch8.eth[20].bitrate = 1600Mbps
*.switch8.eth[21].bitrate = 1500Mbps
*.switch8.eth[22].bitrate = 2300Mbps
*.host9.eth[0].bitrate = 1000Mbps
*.switch9.eth[0].bitrate = 1000Mbps
*.switch9.eth[1].bitrate = 2200Mbps
*.switch9.eth[2].bitrate = 1300Mbps
*.switch9.eth[3].bitrate = 1400Mbps
*.switch9.eth[4].bitrate = 1400Mbps
*.switch9.eth[5].bitrate = 2100Mbps
*.switch9.eth[6].bitrate = 1200Mbps
*.switch9.eth[7].bitrate = 1200Mbps
*.switch9.eth[8].bitrate = 1600Mbps
*.switch9.eth[9].bitrate = 1500Mbps
*.host10.eth[0].bitrate = 1000Mbps
*.switch10.eth[0].bitrate = 1000Mbps
*.switch10.eth[1].bitrate = 1600Mbps
*.switch10.eth[2].bitrate = 1400Mbps
*.switch10.eth[3].bitrate = 2300Mbps
*.switch10.eth[4].bitrate = 1900Mbps
*.switch10.eth[5].bitrate = 1700Mbps
*.switch10.eth[6].bitrate = 2000Mbps
*.switch10.eth[7].bitrate = 1400Mbps
*.switch10.eth[8].bitrate = 1300Mbps
*.switch10.eth[9].bitrate = 1900Mbps
*.switch10.eth[10].bitrate = 1500Mbps
*.host11.eth[0].bitrate = 1000Mbps
*.switch11.eth[0].bitrate = 1000Mbps
*.switch11.eth[1].bitrate = 2300Mbps
*.switch11.eth[2].bitrate = 1900Mbps
*.switch11.eth[3].bitrate = 1600Mbps
*.switch11.eth[4].bitrate = 1400Mbps
*.switch11.eth[5].bitrate = 2000Mbps
*.switch11.eth[6].bitrate = 2000Mbps
*.switch11.eth[7].bitrate = 1600Mbps
*.switch11.eth[8].bitrate = 2200Mbps
*.switch11.eth[9].bitrate = 1200Mbps
*.switch11.eth[10].bitrate = 1800Mbps
*.switch11.eth[11].bitrate = 1700Mbps
*.host12.eth[0].bitrate = 1000Mbps
*.switch12.eth[0].bitrate = 1000Mbps
*.switch12.eth[1].bitrate = 2000Mbps
*.switch12.eth[2].bitrate = 2300Mbps
*.switch12.eth[3].bitrate = 1300Mbps
*.switch12.eth[4].bitrate = 2300Mbps
*.switch12.eth[5].bitrate = 1400Mbps
*.switch12.eth[6].bitrate = 2300Mbps
*.switch12.eth[7].bitrate = 2400Mbps
*.switch12.eth[8].bitrate = 1500Mbps
*.switch12.eth[9].bitrate = 1800Mbps
*.switch12.eth[10].bitrate = 1700Mbps
*.switch12.eth[11].bitrate = 1200Mbps
*.switch12.eth[12].bitrate = 2300Mbps
*.switch12.eth[13].bitrate = 1600Mbps
*.switch12.eth[14].bitrate = 1600Mbps
*.switch12.eth[15].bitrate = 1500Mbps
*.switch12.eth[16].bitrate = 1700Mbps
*.switch12.eth[17].bitrate = 1300Mbps
*.switch12.eth[18].bitrate = 1300Mbps
*.host13.eth[0].bitrate = 1000Mbps
*.switch13.eth[0].bitrate = 1000Mbps
*.switch13.eth[1].bitrate = 2100Mbps
*.switch13.eth[2].bitrate = 1500Mbps
*.switch13.eth[3].bitrate = 1600Mbps
*.switch13.eth[4].bitrate = 1500Mbps
*.switch13.eth[5].bitrate = 1900Mbps
*.switch13.eth[6].bitrate = 1300Mbps
*.switch13.eth[7].bitrate = 1300Mbps
*.switch13.eth[8].bitrate = 2400Mbps
*.switch13.eth[9].bitrate = 1600Mbps
*.switch13.eth[10].bitrate = 1500Mbps
*.switch13.eth[11].bitrate = 1500Mbps
*.host14.eth[0].bitrate = 1000Mbps
*.switch14.eth[0].bitrate = 1000Mbps
*.switch14.eth[1].bitrate = 1700Mbps
*.switch14.eth[2].bitrate = 2200Mbps
*.switch14.eth[3].bitrate = 2100Mbps
*.switch14.eth[4].bitrate = 1800Mbps
*.switch14.eth[5].bitrate = 2300Mbps
*.switch14.eth[6].bitrate = 1800Mbps
*.switch14.eth[7].bitrate = 1300Mbps
*.switch14.eth[8].bitrate = 1300Mbps
*.switch14.eth[9].bitrate = 1700Mbps
*.switch14.eth[10].bitrate = 2300Mbps
*.host0.numApps = 1
*.host0.app[0].typename = "UdpSinkApp"
*.host0.app[0].io.localPort = 1000
*.host1.numApps = 10
*.host1.app[0].typename = "UdpSourceApp"
*.host1.app[0].io.destAddress = "host14"
*.host1.app[0].source.packetNameFormat = "%M-%m-%c"
*.host1.app[0].source.displayStringTextFormat = "sent %p pk (%l)"
*.host1.app[0].source.packetLength = 22B
*.host1.app[0].source.productionInterval = 1ms
*.host1.app[0].display-name = "type1_0"
*.host1.app[0].io.destPort = 1000
*.host1.app[1].typename = "UdpSinkApp"
*.host1.app[1].io.localPort = 1000
*.host1.app[2].typename = "UdpBasicApp"
*.host1.app[2].destAddresses = "host3"
*.host1.app[2].source.packetNameFormat = "%M-%m-%c"
*.host1.app[2].source.displayStringTextFormat = "sent %p pk (%l)"
*.host1.app[2].messageLength = 18B
*.host1.app[2].sendInterval = 1ms
*.host1.app[2].startTime = 10ms
*.host1.app[2].stopTime = 13ms
*.host1.app[2].display-name = "type2_5"
*.host1.app[2].destPort = 1001
*.host1.app[3].typename = "UdpBasicApp"
*.host1.app[3].destAddresses = "host3"
*.host1.app[3].source.packetNameFormat = "%M-%m-%c"
*.host1.app[3].source.displayStringTextFormat = "sent %p pk (%l)"
*.host1.app[3].messageLength = 18B
*.host1.app[3].sendInterval = 1ms
*.host1.app[3].startTime = 26ms
*.host1.app[3].stopTime = 28ms
*.host1.app[3].display-name = "type2_5"
*.host1.app[3].destPort = 1001
*.host1.app[4].typename = "UdpBasicApp"
*.host1.app[4].destAddresses = "host3"
*.host1.app[4].source.packetNameFormat = "%M-%m-%c"
*.host1.app[4].source.displayStringTextFormat = "sent %p pk (%l)"
*.host1.app[4].messageLength = 18B
*.host1.app[4].sendInterval = 1ms
*.host1.app[4].startTime = 29ms
*.host1.app[4].stopTime = 30ms
*.host1.app[4].display-name = "type2_5"
*.host1.app[4].destPort = 1001
*.host1.app[5].typename = "UdpBasicApp"
*.host1.app[5].destAddresses = "host3"
*.host1.app[5].source.packetNameFormat = "%M-%m-%c"
*.host1.app[5].source.displayStringTextFormat = "sent %p pk (%l)"
*.host1.app[5].messageLength = 18B
*.host1.app[5].sendInterval = 1ms
*.host1.app[5].startTime = 36ms
*.host1.app[5].stopTime = 43ms
*.host1.app[5].display-name = "type2_5"
*.host1.app[5].destPort = 1001
*.host1.app[6].typename = "UdpBasicApp"
*.host1.app[6].destAddresses = "host3"
*.host1.app[6].source.packetNameFormat = "%M-%m-%c"
*.host1.app[6].source.displayStringTextFormat = "sent %p pk (%l)"
*.host1.app[6].messageLength = 18B
*.host1.app[6].sendInterval = 1ms
*.host1.app[6].startTime = 46ms
*.host1.app[6].stopTime = 49ms
*.host1.app[6].display-name = "type2_5"
*.host1.app[6].destPort = 1001
*.host1.app[7].typename = "UdpBasicApp"
*.host1.app[7].destAddresses = "host3"
*.host1.app[7].source.packetNameFormat = "%M-%m-%c"
*.host1.app[7].source.displayStringTextFormat = "sent %p pk (%l)"
*.host1.app[7].messageLength = 18B
*.host1.app[7].sendInterval = 1ms
*.host1.app[7].startTime = 59ms
*.host1.app[7].stopTime = 78ms
*.host1.app[7].display-name = "type2_5"
*.host1.app[7].destPort = 1001
*.host1.app[8].typename = "UdpBasicApp"
*.host1.app[8].destAddresses = "host3"
*.host1.app[8].source.packetNameFormat = "%M-%m-%c"
*.host1.app[8].source.displayStringTextFormat = "sent %p pk (%l)"
*.host1.app[8].messageLength = 18B
*.host1.app[8].sendInterval = 1ms
*.host1.app[8].startTime = 81ms
*.host1.app[8].stopTime = 82ms
*.host1.app[8].display-name = "type2_5"
*.host1.app[8].destPort = 1001
*.host1.app[9].typename = "UdpBasicApp"
*.host1.app[9].destAddresses = "host3"
*.host1.app[9].source.packetNameFormat = "%M-%m-%c"
*.host1.app[9].source.displayStringTextFormat = "sent %p pk (%l)"
*.host1.app[9].messageLength = 18B
*.host1.app[9].sendInterval = 1ms
*.host1.app[9].startTime = 90ms
*.host1.app[9].stopTime = 97ms
*.host1.app[9].display-name = "type2_5"
*.host1.app[9].destPort = 1001
*.host2.numApps = 8
*.host2.app[0].typename = "UdpBasicApp"
*.host2.app[0].destAddresses = "host0"
*.host2.app[0].source.packetNameFormat = "%M-%m-%c"
*.host2.app[0].source.displayStringTextFormat = "sent %p pk (%l)"
*.host2.app[0].messageLength = 23B
*.host2.app[0].sendInterval = 1ms
*.host2.app[0].startTime = 21ms
*.host2.app[0].stopTime = 22ms
*.host2.app[0].display-name = "type2_3"
*.host2.app[0].destPort = 1000
*.host2.app[1].typename = "UdpBasicApp"
*.host2.app[1].destAddresses = "host0"
*.host2.app[1].source.packetNameFormat = "%M-%m-%c"
*.host2.app[1].source.displayStringTextFormat = "sent %p pk (%l)"
*.host2.app[1].messageLength = 23B
*.host2.app[1].sendInterval = 1ms
*.host2.app[1].startTime = 24ms
*.host2.app[1].stopTime = 29ms
*.host2.app[1].display-name = "type2_3"
*.host2.app[1].destPort = 1000
*.host2.app[2].typename = "UdpBasicApp"
*.host2.app[2].destAddresses = "host0"
*.host2.app[2].source.packetNameFormat = "%M-%m-%c"
*.host2.app[2].source.displayStringTextFormat = "sent %p pk (%l)"
*.host2.app[2].messageLength = 23B
*.host2.app[2].sendInterval = 1ms
*.host2.app[2].startTime = 32ms
*.host2.app[2].stopTime = 34ms
*.host2.app[2].display-name = "type2_3"
*.host2.app[2].destPort = 1000
*.host2.app[3].typename = "UdpBasicApp"
*.host2.app[3].destAddresses = "host0"
*.host2.app[3].source.packetNameFormat = "%M-%m-%c"
*.host2.app[3].source.displayStringTextFormat = "sent %p pk (%l)"
*.host2.app[3].messageLength = 23B
*.host2.app[3].sendInterval = 1ms
*.host2.app[3].startTime = 40ms
*.host2.app[3].stopTime = 52ms
*.host2.app[3].display-name = "type2_3"
*.host2.app[3].destPort = 1000
*.host2.app[4].typename = "UdpBasicApp"
*.host2.app[4].destAddresses = "host0"
*.host2.app[4].source.packetNameFormat = "%M-%m-%c"
*.host2.app[4].source.displayStringTextFormat = "sent %p pk (%l)"
*.host2.app[4].messageLength = 23B
*.host2.app[4].sendInterval = 1ms
*.host2.app[4].startTime = 64ms
*.host2.app[4].stopTime = 73ms
*.host2.app[4].display-name = "type2_3"
*.host2.app[4].destPort = 1000
*.host2.app[5].typename = "UdpBasicApp"
*.host2.app[5].destAddresses = "host0"
*.host2.app[5].source.packetNameFormat = "%M-%m-%c"
*.host2.app[5].source.displayStringTextFormat = "sent %p pk (%l)"
*.host2.app[5].messageLength = 23B
*.host2.app[5].sendInterval = 1ms
*.host2.app[5].startTime = 82ms
*.host2.app[5].stopTime = 84ms
*.host2.app[5].display-name = "type2_3"
*.host2.app[5].destPort = 1000
*.host2.app[6].typename = "UdpSinkApp"
*.host2.app[6].io.localPort = 1000
*.host2.app[7].typename = "UdpSinkApp"
*.host2.app[7].io.localPort = 1001
*.host3.numApps = 18
*.host3.app[0].typename = "UdpSinkApp"
*.host3.app[0].io.localPort = 1000
*.host3.app[1].typename = "UdpSourceApp"
*.host3.app[1].io.destAddress = "host12"
*.host3.app[1].source.packetNameFormat = "%M-%m-%c"
*.host3.app[1].source.displayStringTextFormat = "sent %p pk (%l)"
*.host3.app[1].source.packetLength = 18B
*.host3.app[1].source.productionInterval = 1ms
*.host3.app[1].display-name = "type1_3"
*.host3.app[1].io.destPort = 1000
*.host3.app[2].typename = "UdpBasicApp"
*.host3.app[2].destAddresses = "host5"
*.host3.app[2].source.packetNameFormat = "%M-%m-%c"
*.host3.app[2].source.displayStringTextFormat = "sent %p pk (%l)"
*.host3.app[2].messageLength = 17B
*.host3.app[2].sendInterval = 1ms
*.host3.app[2].startTime = 36ms
*.host3.app[2].stopTime = 38ms
*.host3.app[2].display-name = "type2_1"
*.host3.app[2].destPort = 1000
*.host3.app[3].typename = "UdpBasicApp"
*.host3.app[3].destAddresses = "host5"
*.host3.app[3].source.packetNameFormat = "%M-%m-%c"
*.host3.app[3].source.displayStringTextFormat = "sent %p pk (%l)"
*.host3.app[3].messageLength = 17B
*.host3.app[3].sendInterval = 1ms
*.host3.app[3].startTime = 43ms
*.host3.app[3].stopTime = 56ms
*.host3.app[3].display-name = "type2_1"
*.host3.app[3].destPort = 1000
*.host3.app[4].typename = "UdpBasicApp"
*.host3.app[4].destAddresses = "host5"
*.host3.app[4].source.packetNameFormat = "%M-%m-%c"
*.host3.app[4].source.displayStringTextFormat = "sent %p pk (%l)"
*.host3.app[4].messageLength = 17B
*.host3.app[4].sendInterval = 1ms
*.host3.app[4].startTime = 59ms
*.host3.app[4].stopTime = 64ms
*.host3.app[4].display-name = "type2_1"
*.host3.app[4].destPort = 1000
*.host3.app[5].typename = "UdpBasicApp"
*.host3.app[5].destAddresses = "host5"
*.host3.app[5].source.packetNameFormat = "%M-%m-%c"
*.host3.app[5].source.displayStringTextFormat = "sent %p pk (%l)"
*.host3.app[5].messageLength = 17B
*.host3.app[5].sendInterval = 1ms
*.host3.app[5].startTime = 82ms
*.host3.app[5].stopTime = 84ms
*.host3.app[5].display-name = "type2_1"
*.host3.app[5].destPort = 1000
*.host3.app[6].typename = "UdpBasicApp"
*.host3.app[6].destAddresses = "host5"
*.host3.app[6].source.packetNameFormat = "%M-%m-%c"
*.host3.app[6].source.displayStringTextFormat = "sent %p pk (%l)"
*.host3.app[6].messageLength = 17B
*.host3.app[6].sendInterval = 1ms
*.host3.app[6].startTime = 94ms
*.host3.app[6].stopTime = 96ms
*.host3.app[6].display-name = "type2_1"
*.host3.app[6].destPort = 1000
*.host3.app[7].typename = "UdpSinkApp"
*.host3.app[7].io.localPort = 1001
*.host3.app[8].typename = "UdpSinkApp"
*.host3.app[8].io.localPort = 1002
*.host3.app[9].typename = "UdpBasicApp"
*.host3.app[9].destAddresses = "host2"
*.host3.app[9].source.packetNameFormat = "%M-%m-%c"
*.host3.app[9].source.displayStringTextFormat = "sent %p pk (%l)"
*.host3.app[9].messageLength = 13B
*.host3.app[9].sendInterval = 1ms
*.host3.app[9].startTime = 6ms
*.host3.app[9].stopTime = 19ms
*.host3.app[9].display-name = "type2_8"
*.host3.app[9].destPort = 1000
*.host3.app[10].typename = "UdpBasicApp"
*.host3.app[10].destAddresses = "host2"
*.host3.app[10].source.packetNameFormat = "%M-%m-%c"
*.host3.app[10].source.displayStringTextFormat = "sent %p pk (%l)"
*.host3.app[10].messageLength = 13B
*.host3.app[10].sendInterval = 1ms
*.host3.app[10].startTime = 24ms
*.host3.app[10].stopTime = 29ms
*.host3.app[10].display-name = "type2_8"
*.host3.app[10].destPort = 1000
*.host3.app[11].typename = "UdpBasicApp"
*.host3.app[11].destAddresses = "host2"
*.host3.app[11].source.packetNameFormat = "%M-%m-%c"
*.host3.app[11].source.displayStringTextFormat = "sent %p pk (%l)"
*.host3.app[11].messageLength = 13B
*.host3.app[11].sendInterval = 1ms
*.host3.app[11].startTime = 37ms
*.host3.app[11].stopTime = 48ms
*.host3.app[11].display-name = "type2_8"
*.host3.app[11].destPort = 1000
*.host3.app[12].typename = "UdpBasicApp"
*.host3.app[12].destAddresses = "host2"
*.host3.app[12].source.packetNameFormat = "%M-%m-%c"
*.host3.app[12].source.displayStringTextFormat = "sent %p pk (%l)"
*.host3.app[12].messageLength = 13B
*.host3.app[12].sendInterval = 1ms
*.host3.app[12].startTime = 63ms
*.host3.app[12].stopTime = 65ms
*.host3.app[12].display-name = "type2_8"
*.host3.app[12].destPort = 1000
*.host3.app[13].typename = "UdpBasicApp"
*.host3.app[13].destAddresses = "host2"
*.host3.app[13].source.packetNameFormat = "%M-%m-%c"
*.host3.app[13].source.displayStringTextFormat = "sent %p pk (%l)"
*.host3.app[13].messageLength = 13B
*.host3.app[13].sendInterval = 1ms
*.host3.app[13].startTime = 73ms
*.host3.app[13].stopTime = 81ms
*.host3.app[13].display-name = "type2_8"
*.host3.app[13].destPort = 1000
*.host3.app[14].typename = "UdpBasicApp"
*.host3.app[14].destAddresses = "host2"
*.host3.app[14].source.packetNameFormat = "%M-%m-%c"
*.host3.app[14].source.displayStringTextFormat = "sent %p pk (%l)"
*.host3.app[14].messageLength = 13B
*.host3.app[14].sendInterval = 1ms
*.host3.app[14].startTime = 84ms
*.host3.app[14].stopTime = 94ms
*.host3.app[14].display-name = "type2_8"
*.host3.app[14].destPort = 1000
*.host3.app[15].typename = "UdpBasicApp"
*.host3.app[15].destAddresses = "host8"
*.host3.app[15].source.packetNameFormat = "%M-%m-%c"
*.host3.app[15].source.displayStringTextFormat = "sent %p pk (%l)"
*.host3.app[15].messageLength = 15B
*.host3.app[15].sendInterval = 1ms
*.host3.app[15].startTime = 5ms
*.host3.app[15].stopTime = 16ms
*.host3.app[15].display-name = "type2_15"
*.host3.app[15].destPort = 1000
*.host3.app[16].typename = "UdpBasicApp"
*.host3.app[16].destAddresses = "host8"
*.host3.app[16].source.packetNameFormat = "%M-%m-%c"
*.host3.app[16].source.displayStringTextFormat = "sent %p pk (%l)"
*.host3.app[16].messageLength = 15B
*.host3.app[16].sendInterval = 1ms
*.host3.app[16].startTime = 39ms
*.host3.app[16].stopTime = 73ms
*.host3.app[16].display-name = "type2_15"
*.host3.app[16].destPort = 1000
*.host3.app[17].typename = "UdpBasicApp"
*.host3.app[17].destAddresses = "host8"
*.host3.app[17].source.packetNameFormat = "%M-%m-%c"
*.host3.app[17].source.displayStringTextFormat = "sent %p pk (%l)"
*.host3.app[17].messageLength = 15B
*.host3.app[17].sendInterval = 1ms
*.host3.app[17].startTime = 93ms
*.host3.app[17].stopTime = 100ms
*.host3.app[17].display-name = "type2_15"
*.host3.app[17].destPort = 1000
*.host4.numApps = 11
*.host4.app[0].typename = "UdpBasicApp"
*.host4.app[0].destAddresses = "host7"
*.host4.app[0].source.packetNameFormat = "%M-%m-%c"
*.host4.app[0].source.displayStringTextFormat = "sent %p pk (%l)"
*.host4.app[0].messageLength = 13B
*.host4.app[0].sendInterval = 1ms
*.host4.app[0].startTime = 7ms
*.host4.app[0].stopTime = 10ms
*.host4.app[0].display-name = "type2_6"
*.host4.app[0].destPort = 1001
*.host4.app[1].typename = "UdpBasicApp"
*.host4.app[1].destAddresses = "host7"
*.host4.app[1].source.packetNameFormat = "%M-%m-%c"
*.host4.app[1].source.displayStringTextFormat = "sent %p pk (%l)"
*.host4.app[1].messageLength = 13B
*.host4.app[1].sendInterval = 1ms
*.host4.app[1].startTime = 18ms
*.host4.app[1].stopTime = 41ms
*.host4.app[1].display-name = "type2_6"
*.host4.app[1].destPort = 1001
*.host4.app[2].typename = "UdpBasicApp"
*.host4.app[2].destAddresses = "host7"
*.host4.app[2].source.packetNameFormat = "%M-%m-%c"
*.host4.app[2].source.displayStringTextFormat = "sent %p pk (%l)"
*.host4.app[2].messageLength = 13B
*.host4.app[2].sendInterval = 1ms
*.host4.app[2].startTime = 53ms
*.host4.app[2].stopTime = 68ms
*.host4.app[2].display-name = "type2_6"
*.host4.app[2].destPort = 1001
*.host4.app[3].typename = "UdpBasicApp"
*.host4.app[3].destAddresses = "host7"
*.host4.app[3].source.packetNameFormat = "%M-%m-%c"
*.host4.app[3].source.displayStringTextFormat = "sent %p pk (%l)"
*.host4.app[3].messageLength = 13B
*.host4.app[3].sendInterval = 1ms
*.host4.app[3].startTime = 72ms
*.host4.app[3].stopTime = 74ms
*.host4.app[3].display-name = "type2_6"
*.host4.app[3].destPort = 1001
*.host4.app[4].typename = "UdpBasicApp"
*.host4.app[4].destAddresses = "host7"
*.host4.app[4].source.packetNameFormat = "%M-%m-%c"
*.host4.app[4].source.displayStringTextFormat = "sent %p pk (%l)"
*.host4.app[4].messageLength = 13B
*.host4.app[4].sendInterval = 1ms
*.host4.app[4].startTime = 87ms
*.host4.app[4].stopTime = 89ms
*.host4.app[4].display-name = "type2_6"
*.host4.app[4].destPort = 1001
*.host4.app[5].typename = "UdpSinkApp"
*.host4.app[5].io.localPort = 1000
*.host4.app[6].typename = "UdpBasicApp"
*.host4.app[6].destAddresses = "host2"
*.host4.app[6].source.packetNameFormat = "%M-%m-%c"
*.host4.app[6].source.displayStringTextFormat = "sent %p pk (%l)"
*.host4.app[6].messageLength = 22B
*.host4.app[6].sendInterval = 1ms
*.host4.app[6].startTime = 3ms
*.host4.app[6].stopTime = 10ms
*.host4.app[6].display-name = "type2_14"
*.host4.app[6].destPort = 1001
*.host4.app[7].typename = "UdpBasicApp"
*.host4.app[7].destAddresses = "host2"
*.host4.app[7].source.packetNameFormat = "%M-%m-%c"
*.host4.app[7].source.displayStringTextFormat = "sent %p pk (%l)"
*.host4.app[7].messageLength = 22B
*.host4.app[7].sendInterval = 1ms
*.host4.app[7].startTime = 12ms
*.host4.app[7].stopTime = 29ms
*.host4.app[7].display-name = "type2_14"
*.host4.app[7].destPort = 1001
*.host4.app[8].typename = "UdpBasicApp"
*.host4.app[8].destAddresses = "host2"
*.host4.app[8].source.packetNameFormat = "%M-%m-%c"
*.host4.app[8].source.displayStringTextFormat = "sent %p pk (%l)"
*.host4.app[8].messageLength = 22B
*.host4.app[8].sendInterval = 1ms
*.host4.app[8].startTime = 44ms
*.host4.app[8].stopTime = 48ms
*.host4.app[8].display-name = "type2_14"
*.host4.app[8].destPort = 1001
*.host4.app[9].typename = "UdpBasicApp"
*.host4.app[9].destAddresses = "host2"
*.host4.app[9].source.packetNameFormat = "%M-%m-%c"
*.host4.app[9].source.displayStringTextFormat = "sent %p pk (%l)"
*.host4.app[9].messageLength = 22B
*.host4.app[9].sendInterval = 1ms
*.host4.app[9].startTime = 57ms
*.host4.app[9].stopTime = 60ms
*.host4.app[9].display-name = "type2_14"
*.host4.app[9].destPort = 1001
*.host4.app[10].typename = "UdpBasicApp"
*.host4.app[10].destAddresses = "host2"
*.host4.app[10].source.packetNameFormat = "%M-%m-%c"
*.host4.app[10].source.displayStringTextFormat = "sent %p pk (%l)"
*.host4.app[10].messageLength = 22B
*.host4.app[10].sendInterval = 1ms
*.host4.app[10].startTime = 70ms
*.host4.app[10].stopTime = 75ms
*.host4.app[10].display-name = "type2_14"
*.host4.app[10].destPort = 1001
*.host5.numApps = 2
*.host5.app[0].typename = "UdpSinkApp"
*.host5.app[0].io.localPort = 1000
*.host5.app[1].typename = "UdpSinkApp"
*.host5.app[1].io.localPort = 1001
*.host6.numApps = 10
*.host6.app[0].typename = "UdpSourceApp"
*.host6.app[0].io.destAddress = "host3"
*.host6.app[0].source.packetNameFormat = "%M-%m-%c"
*.host6.app[0].source.displayStringTextFormat = "sent %p pk (%l)"
*.host6.app[0].source.packetLength = 21B
*.host6.app[0].source.productionInterval = 1ms
*.host6.app[0].display-name = "type1_1"
*.host6.app[0].io.destPort = 1000
*.host6.app[1].typename = "UdpBasicApp"
*.host6.app[1].destAddresses = "host3"
*.host6.app[1].source.packetNameFormat = "%M-%m-%c"
*.host6.app[1].source.displayStringTextFormat = "sent %p pk (%l)"
*.host6.app[1].messageLength = 19B
*.host6.app[1].sendInterval = 1ms
*.host6.app[1].startTime = 4ms
*.host6.app[1].stopTime = 5ms
*.host6.app[1].display-name = "type2_7"
*.host6.app[1].destPort = 1002
*.host6.app[2].typename = "UdpBasicApp"
*.host6.app[2].destAddresses = "host3"
*.host6.app[2].source.packetNameFormat = "%M-%m-%c"
*.host6.app[2].source.displayStringTextFormat = "sent %p pk (%l)"
*.host6.app[2].messageLength = 19B
*.host6.app[2].sendInterval = 1ms
*.host6.app[2].startTime = 27ms
*.host6.app[2].stopTime = 34ms
*.host6.app[2].display-name = "type2_7"
*.host6.app[2].destPort = 1002
*.host6.app[3].typename = "UdpBasicApp"
*.host6.app[3].destAddresses = "host3"
*.host6.app[3].source.packetNameFormat = "%M-%m-%c"
*.host6.app[3].source.displayStringTextFormat = "sent %p pk (%l)"
*.host6.app[3].messageLength = 19B
*.host6.app[3].sendInterval = 1ms
*.host6.app[3].startTime = 56ms
*.host6.app[3].stopTime = 58ms
*.host6.app[3].display-name = "type2_7"
*.host6.app[3].destPort = 1002
*.host6.app[4].typename = "UdpBasicApp"
*.host6.app[4].destAddresses = "host3"
*.host6.app[4].source.packetNameFormat = "%M-%m-%c"
*.host6.app[4].source.displayStringTextFormat = "sent %p pk (%l)"
*.host6.app[4].messageLength = 19B
*.host6.app[4].sendInterval = 1ms
*.host6.app[4].startTime = 63ms
*.host6.app[4].stopTime = 64ms
*.host6.app[4].display-name = "type2_7"
*.host6.app[4].destPort = 1002
*.host6.app[5].typename = "UdpBasicApp"
*.host6.app[5].destAddresses = "host3"
*.host6.app[5].source.packetNameFormat = "%M-%m-%c"
*.host6.app[5].source.displayStringTextFormat = "sent %p pk (%l)"
*.host6.app[5].messageLength = 19B
*.host6.app[5].sendInterval = 1ms
*.host6.app[5].startTime = 72ms
*.host6.app[5].stopTime = 81ms
*.host6.app[5].display-name = "type2_7"
*.host6.app[5].destPort = 1002
*.host6.app[6].typename = "UdpBasicApp"
*.host6.app[6].destAddresses = "host3"
*.host6.app[6].source.packetNameFormat = "%M-%m-%c"
*.host6.app[6].source.displayStringTextFormat = "sent %p pk (%l)"
*.host6.app[6].messageLength = 19B
*.host6.app[6].sendInterval = 1ms
*.host6.app[6].startTime = 83ms
*.host6.app[6].stopTime = 97ms
*.host6.app[6].display-name = "type2_7"
*.host6.app[6].destPort = 1002
*.host6.app[7].typename = "UdpBasicApp"
*.host6.app[7].destAddresses = "host4"
*.host6.app[7].source.packetNameFormat = "%M-%m-%c"
*.host6.app[7].source.displayStringTextFormat = "sent %p pk (%l)"
*.host6.app[7].messageLength = 20B
*.host6.app[7].sendInterval = 1ms
*.host6.app[7].startTime = 15ms
*.host6.app[7].stopTime = 56ms
*.host6.app[7].display-name = "type2_9"
*.host6.app[7].destPort = 1000
*.host6.app[8].typename = "UdpBasicApp"
*.host6.app[8].destAddresses = "host4"
*.host6.app[8].source.packetNameFormat = "%M-%m-%c"
*.host6.app[8].source.displayStringTextFormat = "sent %p pk (%l)"
*.host6.app[8].messageLength = 20B
*.host6.app[8].sendInterval = 1ms
*.host6.app[8].startTime = 77ms
*.host6.app[8].stopTime = 79ms
*.host6.app[8].display-name = "type2_9"
*.host6.app[8].destPort = 1000
*.host6.app[9].typename = "UdpBasicApp"
*.host6.app[9].destAddresses = "host4"
*.host6.app[9].source.packetNameFormat = "%M-%m-%c"
*.host6.app[9].source.displayStringTextFormat = "sent %p pk (%l)"
*.host6.app[9].messageLength = 20B
*.host6.app[9].sendInterval = 1ms
*.host6.app[9].startTime = 90ms
*.host6.app[9].stopTime = 96ms
*.host6.app[9].display-name = "type2_9"
*.host6.app[9].destPort = 1000
*.host7.numApps = 4
*.host7.app[0].typename = "UdpSinkApp"
*.host7.app[0].io.localPort = 1000
*.host7.app[1].typename = "UdpSinkApp"
*.host7.app[1].io.localPort = 1001
*.host7.app[2].typename = "UdpSinkApp"
*.host7.app[2].io.localPort = 1002
*.host7.app[3].typename = "UdpSinkApp"
*.host7.app[3].io.localPort = 1003
*.host8.numApps = 1
*.host8.app[0].typename = "UdpSinkApp"
*.host8.app[0].io.localPort = 1000
*.host9.numApps = 18
*.host9.app[0].typename = "UdpSourceApp"
*.host9.app[0].io.destAddress = "host10"
*.host9.app[0].source.packetNameFormat = "%M-%m-%c"