[General]
network = TSN_multipath
sim-time-limit = 100ms
*.macForwardingTableConfigurator.typename = ""
*.*.hasStreamRedundancy = true
*.*.bridging.streamRelay.typename = "StreamRelayLayer"
*.*.bridging.streamCoder.typename = "StreamCoderLayer"
*.streamRedundancyConfigurator.typename = "StreamRedundancyConfigurator"
*.host0.eth[0].bitrate = 1000Mbps
*.switch0.eth[0].bitrate = 1000Mbps
*.switch0.eth[1].bitrate = 1300Mbps
*.switch0.eth[2].bitrate = 1400Mbps
*.switch0.eth[3].bitrate = 2000Mbps
*.switch0.eth[4].bitrate = 1800Mbps
*.switch0.eth[5].bitrate = 1900Mbps
*.switch0.eth[6].bitrate = 1700Mbps
*.switch0.eth[7].bitrate = 2300Mbps
*.switch0.eth[8].bitrate = 1300Mbps
*.switch0.eth[9].bitrate = 2000Mbps
*.switch0.eth[10].bitrate = 1600Mbps
*.switch0.eth[11].bitrate = 1200Mbps
*.switch0.eth[12].bitrate = 1400Mbps
*.switch0.eth[13].bitrate = 1600Mbps
*.switch0.eth[14].bitrate = 1300Mbps
*.switch0.eth[15].bitrate = 1600Mbps
*.host1.eth[0].bitrate = 1000Mbps
*.switch1.eth[0].bitrate = 1000Mbps
*.switch1.eth[1].bitrate = 1500Mbps
*.switch1.eth[2].bitrate = 2000Mbps
*.switch1.eth[3].bitrate = 2000Mbps
*.switch1.eth[4].bitrate = 1400Mbps
*.switch1.eth[5].bitrate = 1400Mbps
*.switch1.eth[6].bitrate = 2400Mbps
*.switch1.eth[7].bitrate = 1800Mbps
*.switch1.eth[8].bitrate = 1200Mbps
*.switch1.eth[9].bitrate = 2100Mbps
*.switch1.eth[10].bitrate = 1400Mbps
*.switch1.eth[11].bitrate = 2300Mbps
*.host2.eth[0].bitrate = 1000Mbps
*.switch2.eth[0].bitrate = 1000Mbps
*.switch2.eth[1].bitrate = 1300Mbps
*.switch2.eth[2].bitrate = 1400Mbps
*.switch2.eth[3].bitrate = 2100Mbps
*.switch2.eth[4].bitrate = 1700Mbps
*.switch2.eth[5].bitrate = 1800Mbps
*.switch2.eth[6].bitrate = 2300Mbps
*.switch2.eth[7].bitrate = 2200Mbps
*.switch2.eth[8].bitrate = 2200Mbps
*.switch2.eth[9].bitrate = 1700Mbps
*.switch2.eth[10].bitrate = 2300Mbps
*.switch2.eth[11].bitrate = 1300Mbps
*.switch2.eth[12].bitrate = 1600Mbps
*.switch2.eth[13].bitrate = 1500Mbps
*.switch2.eth[14].bitrate = 2000Mbps
*.switch2.eth[15].bitrate = 1700Mbps
*.switch2.eth[16].bitrate = 1900Mbps
*.host3.eth[0].bitrate = 1000Mbps
*.switch3.eth[0].bitrate = 1000Mbps
*.switch3.eth[1].bitrate = 1400Mbps
*.switch3.eth[2].bitrate = 2100Mbps
*.switch3.eth[3].bitrate = 2000Mbps
*.switch3.eth[4].bitrate = 1400Mbps
*.switch3.eth[5].bitrate = 1600Mbps
*.switch3.eth[6].bitrate = 1900Mbps
*.switch3.eth[7].bitrate = 2000Mbps
*.switch3.eth[8].bitrate = 1200Mbps
*.switch3.eth[9].bitrate = 1600Mbps
*.host4.eth[0].bitrate = 1000Mbps
*.switch4.eth[0].bitrate = 1000Mbps
*.switch4.eth[1].bitrate = 2000Mbps
*.switch4.eth[2].bitrate = 1700Mbps
*.switch4.eth[3].bitrate = 2000Mbps
*.switch4.eth[4].bitrate = 1500Mbps
*.switch4.eth[5].bitrate = 1400Mbps
*.switch4.eth[6].bitrate = 2300Mbps
*.switch4.eth[7].bitrate = 1800Mbps
*.switch4.eth[8].bitrate = 2000Mbps
*.switch4.eth[9].bitrate = 1700Mbps
*.host5.eth[0].bitrate = 1000Mbps
*.switch5.eth[0].bitrate = 1000Mbps
*.switch5.eth[1].bitrate = 1800Mbps
*.switch5.eth[2].bitrate = 1800Mbps
*.switch5.eth[3].bitrate = 2100Mbps
*.switch5.eth[4].bitrate = 1200Mbps
*.switch5.eth[5].bitrate = 1400Mbps
*.switch5.eth[6].bitrate = 1500Mbps
*.switch5.eth[7].bitrate = 2000Mbps
*.switch5.eth[8].bitrate = 1500Mbps
*.switch5.eth[9].bitrate = 2100Mbps
*.switch5.eth[10].bitrate = 1200Mbps
*.host6.eth[0].bitrate = 1000Mbps
*.switch6.eth[0].bitrate = 1000Mbps
*.switch6.eth[1].bitrate = 1900Mbps
*.switch6.eth[2].bitrate = 2300Mbps
*.switch6.eth[3].bitrate = 1500Mbps
*.switch6.eth[4].bitrate = 1600Mbps
*.switch6.eth[5].bitrate = 2400Mbps
*.switch6.eth[6].bitrate = 1500Mbps
*.switch6.eth[7].bitrate = 1400Mbps
*.switch6.eth[8].bitrate = 1500Mbps
*.switch6.eth[9].bitrate = 1200Mbps
*.switch6.eth[10].bitrate = 1700Mbps
*.switch6.eth[11].bitrate = 1300Mbps
*.switch6.eth[12].bitrate = 2100Mbps
*.switch6.eth[13].bitrate = 2100Mbps
*.switch6.eth[14].bitrate = 2300Mbps
*.switch6.eth[15].bitrate = 2000Mbps
*.switch6.eth[16].bitrate = 1400Mbps
*.switch6.eth[17].bitrate = 2200Mbps
*.host7.eth[0].bitrate = 1000Mbps
*.switch7.eth[0].bitrate = 1000Mbps
*.switch7.eth[1].bitrate = 1500Mbps
*.switch7.eth[2].bitrate = 1200Mbps
*.switch7.eth[3].bitrate = 1400Mbps
*.switch7.eth[4].bitrate = 2100Mbps
*.switch7.eth[5].bitrate = 1900Mbps
*.switch7.eth[6].bitrate = 1900Mbps
*.host8.eth[0].bitrate = 1000Mbps
*.switch8.eth[0].bitrate = 1000Mbps
*.switch8.eth[1].bitrate = 1900Mbps
*.switch8.eth[2].bitrate = 2100Mbps
*.switch8.eth[3].bitrate = 1900Mbps
*.switch8.eth[4].bitrate = 2100Mbps
*.switch8.eth[5].bitrate = 1800Mbps
*.switch8.eth[6].bitrate = 1800Mbps
*.host9.eth[0].bitrate = 1000Mbps
*.switch9.eth[0].bitrate = 1000Mbps
*.switch9.eth[1].bitrate = 1700Mbps
*.switch9.eth[2].bitrate = 2200Mbps
*.switch9.eth[3].bitrate = 1200Mbps
*.switch9.eth[4].bitrate = 1700Mbps
*.switch9.eth[5].bitrate = 1200Mbps
*.switch9.eth[6].bitrate = 1800Mbps
*.switch9.eth[7].bitrate = 2000Mbps
*.switch9.eth[8].bitrate = 1200Mbps
*.switch9.eth[9].bitrate = 2300Mbps
*.switch9.eth[10].bitrate = 2000Mbps
*.switch9.eth[11].bitrate = 2000Mbps
*.switch9.eth[12].bitrate = 2100Mbps
*.switch9.eth[13].bitrate = 1800Mbps
*.switch9.eth[14].bitrate = 1900Mbps
*.switch9.eth[15].bitrate = 1500Mbps
*.switch9.eth[16].bitrate = 2100Mbps
*.switch9.eth[17].bitrate = 2300Mbps
*.switch9.eth[18].bitrate = 1200Mbps
*.switch9.eth[19].bitrate = 2300Mbps
*.switch9.eth[20].bitrate = 2000Mbps
*.switch9.eth[21].bitrate = 1600Mbps
*.host10.eth[0].bitrate = 1000Mbps
*.switch10.eth[0].bitrate = 1000Mbps
*.switch10.eth[1].bitrate = 2300Mbps
*.switch10.eth[2].bitrate = 2200Mbps
*.switch10.eth[3].bitrate = 1300Mbps
*.switch10.eth[4].bitrate = 1900Mbps
*.switch10.eth[5].bitrate = 1900Mbps
*.switch10.eth[6].bitrate = 1400Mbps
*.switch10.eth[7].bitrate = 1200Mbps
*.switch10.eth[8].bitrate = 1700Mbps
*.switch10.eth[9].bitrate = 1500Mbps
*.switch10.eth[10].bitrate = 1900Mbps
*.switch10.eth[11].bitrate = 1200Mbps
*.switch10.eth[12].bitrate = 1800Mbps
*.switch10.eth[13].bitrate = 1300Mbps
*.switch10.eth[14].bitrate = 1800Mbps
*.host11.eth[0].bitrate = 1000Mbps
*.switch11.eth[0].bitrate = 1000Mbps
*.switch11.eth[1].bitrate = 2000Mbps
*.switch11.eth[2].bitrate = 1700Mbps
*.switch11.eth[3].bitrate = 2100Mbps
*.switch11.eth[4].bitrate = 1500Mbps
*.switch11.eth[5].bitrate = 1800Mbps
*.switch11.eth[6].bitrate = 2100Mbps
*.switch11.eth[7].bitrate = 1800Mbps
*.switch11.eth[8].bitrate = 2100Mbps
*.switch11.eth[9].bitrate = 1400Mbps
*.switch11.eth[10].bitrate = 1900Mbps
*.switch11.eth[11].bitrate = 1800Mbps
*.switch11.eth[12].bitrate = 2300Mbps
*.switch11.eth[13].bitrate = 1500Mbps
*.switch11.eth[14].bitrate = 2400Mbps
*.host12.eth[0].bitrate = 1000Mbps
*.switch12.eth[0].bitrate = 1000Mbps
*.switch12.eth[1].bitrate = 2300Mbps
*.switch12.eth[2].bitrate = 2100Mbps
*.switch12.eth[3].bitrate = 2100Mbps
*.switch12.eth[4].bitrate = 1300Mbps
*.switch12.eth[5].bitrate = 1500Mbps
*.switch12.eth[6].bitrate = 1600Mbps
*.switch12.eth[7].bitrate = 2000Mbps
*.switch12.eth[8].bitrate = 1800Mbps
*.host13.eth[0].bitrate = 1000Mbps
*.switch13.eth[0].bitrate = 1000Mbps
*.switch13.eth[1].bitrate = 1400Mbps
*.switch13.eth[2].bitrate = 1400Mbps
*.switch13.eth[3].bitrate = 2100Mbps
*.switch13.eth[4].bitrate = 1300Mbps
*.switch13.eth[5].bitrate = 1400Mbps
*.switch13.eth[6].bitrate = 1900Mbps
*.switch13.eth[7].bitrate = 2200Mbps
*.switch13.eth[8].bitrate = 2000Mbps
*.switch13.eth[9].bitrate = 1800Mbps
*.host14.eth[0].bitrate = 1000Mbps
*.switch14.eth[0].bitrate = 1000Mbps
*.switch14.eth[1].bitrate = 1300Mbps
*.switch14.eth[2].bitrate = 2000Mbps
*.switch14.eth[3].bitrate = 1300Mbps
*.switch14.eth[4].bitrate = 2300Mbps
*.switch14.eth[5].bitrate = 2300Mbps
*.switch14.eth[6].bitrate = 2400Mbps
*.switch14.eth[7].bitrate = 1800Mbps
*.switch14.eth[8].bitrate = 1600Mbps
*.switch14.eth[9].bitrate = 2300Mbps
*.switch14.eth[10].bitrate = 1600Mbps
*.switch14.eth[11].bitrate = 1700Mbps
*.switch14.eth[12].bitrate = 1200Mbps
*.switch14.eth[13].bitrate = 1600Mbps
*.host0.numApps = 11
*.host0.app[0].typename = "UdpSinkApp"
*.host0.app[0].io.localPort = 1000
*.host0.app[1].typename = "UdpSinkApp"
*.host0.app[1].io.localPort = 1001
*.host0.app[2].typename = "UdpBasicApp"
*.host0.app[2].destAddresses = "host2"
*.host0.app[2].source.packetNameFormat = "%M-%m-%c"
*.host0.app[2].source.displayStringTextFormat = "sent %p pk (%l)"
*.host0.app[2].messageLength = 14B
*.host0.app[2].sendInterval = 1ms
*.host0.app[2].startTime = 17ms
*.host0.app[2].stopTime = 23ms
*.host0.app[2].display-name = "type2_3"
*.host0.app[2].destPort = 1001
*.host0.app[3].typename = "UdpBasicApp"
*.host0.app[3].destAddresses = "host2"
*.host0.app[3].source.packetNameFormat = "%M-%m-%c"
*.host0.app[3].source.displayStringTextFormat = "sent %p pk (%l)"
*.host0.app[3].messageLength = 14B
*.host0.app[3].sendInterval = 1ms
*.host0.app[3].startTime = 54ms
*.host0.app[3].stopTime = 57ms
*.host0.app[3].display-name = "type2_3"
*.host0.app[3].destPort = 1001
*.host0.app[4].typename = "UdpBasicApp"
*.host0.app[4].destAddresses = "host2"
*.host0.app[4].source.packetNameFormat = "%M-%m-%c"
*.host0.app[4].source.displayStringTextFormat = "sent %p pk (%l)"
*.host0.app[4].messageLength = 14B
*.host0.app[4].sendInterval = 1ms
*.host0.app[4].startTime = 59ms
*.host0.app[4].stopTime = 68ms
*.host0.app[4].display-name = "type2_3"
*.host0.app[4].destPort = 1001
*.host0.app[5].typename = "UdpBasicApp"
*.host0.app[5].destAddresses = "host2"
*.host0.app[5].source.packetNameFormat = "%M-%m-%c"
*.host0.app[5].source.displayStringTextFormat = "sent %p pk (%l)"
*.host0.app[5].messageLength = 14B
*.host0.app[5].sendInterval = 1ms
*.host0.app[5].startTime = 79ms
*.host0.app[5].stopTime = 93ms
*.host0.app[5].display-name = "type2_3"
*.host0.app[5].destPort = 1001
*.host0.app[6].typename = "UdpBasicApp"
*.host0.app[6].destAddresses = "host14"
*.host0.app[6].source.packetNameFormat = "%M-%m-%c"
*.host0.app[6].source.displayStringTextFormat = "sent %p pk (%l)"
*.host0.app[6].messageLength = 21B
*.host0.app[6].sendInterval = 1ms
*.host0.app[6].startTime = 4ms
*.host0.app[6].stopTime = 8ms
*.host0.app[6].display-name = "type2_8"
*.host0.app[6].destPort = 1001
*.host0.app[7].typename = "UdpBasicApp"
*.host0.app[7].destAddresses = "host14"
*.host0.app[7].source.packetNameFormat = "%M-%m-%c"
*.host0.app[7].source.displayStringTextFormat = "sent %p pk (%l)"
*.host0.app[7].messageLength = 21B
*.host0.app[7].sendInterval = 1ms
*.host0.app[7].startTime = 15ms
*.host0.app[7].stopTime = 25ms
*.host0.app[7].display-name = "type2_8"
*.host0.app[7].destPort = 1001
*.host0.app[8].typename = "UdpBasicApp"
*.host0.app[8].destAddresses = "host14"
*.host0.app[8].source.packetNameFormat = "%M-%m-%c"
*.host0.app[8].source.displayStringTextFormat = "sent %p pk (%l)"
*.host0.app[8].messageLength = 21B
*.host0.app[8].sendInterval = 1ms
*.host0.app[8].startTime = 32ms
*.host0.app[8].stopTime = 34ms
*.host0.app[8].display-name = "type2_8"
*.host0.app[8].destPort = 1001
*.host0.app[9].typename = "UdpBasicApp"
*.host0.app[9].destAddresses = "host14"
*.host0.app[9].source.packetNameFormat = "%M-%m-%c"
*.host0.app[9].source.displayStringTextFormat = "sent %p pk (%l)"
*.host0.app[9].messageLength = 21B
*.host0.app[9].sendInterval = 1ms
*.host0.app[9].startTime = 52ms
*.host0.app[9].stopTime = 66ms
*.host0.app[9].display-name = "type2_8"
*.host0.app[9].destPort = 1001
*.host0.app[10].typename = "UdpBasicApp"
*.host0.app[10].destAddresses = "host14"
*.host0.app[10].source.packetNameFormat = "%M-%m-%c"
*.host0.app[10].source.displayStringTextFormat = "sent %p pk (%l)"
*.host0.app[10].messageLength = 21B
*.host0.app[10].sendInterval = 1ms
*.host0.app[10].startTime = 76ms
*.host0.app[10].stopTime = 100ms
*.host0.app[10].display-name = "type2_8"
*.host0.app[10].destPort = 1001
*.host1.numApps = 7
*.host1.app[0].typename = "UdpSinkApp"
*.host1.app[0].io.localPort = 1000
*.host1.app[1].typename = "UdpBasicApp"
*.host1.app[1].destAddresses = "host13"
*.host1.app[1].source.packetNameFormat = "%M-%m-%c"
*.host1.app[1].source.displayStringTextFormat = "sent %p pk (%l)"
*.host1.app[1].messageLength = 15B
*.host1.app[1].sendInterval = 1ms
*.host1.app[1].startTime = 5ms
*.host1.app[1].stopTime = 20ms
*.host1.app[1].display-name = "type2_6"
*.host1.app[1].destPort = 1000
*.host1.app[2].typename = "UdpBasicApp"
*.host1.app[2].destAddresses = "host13"
*.host1.app[2].source.packetNameFormat = "%M-%m-%c"
*.host1.app[2].source.displayStringTextFormat = "sent %p pk (%l)"
*.host1.app[2].messageLength = 15B
*.host1.app[2].sendInterval = 1ms
*.host1.app[2].startTime = 25ms
*.host1.app[2].stopTime = 26ms
*.host1.app[2].display-name = "type2_6"
*.host1.app[2].destPort = 1000
*.host1.app[3].typename = "UdpBasicApp"
*.host1.app[3].destAddresses = "host13"
*.host1.app[3].source.packetNameFormat = "%M-%m-%c"
*.host1.app[3].source.displayStringTextFormat = "sent %p pk (%l)"
*.host1.app[3].messageLength = 15B
*.host1.app[3].sendInterval = 1ms
*.host1.app[3].startTime = 45ms
*.host1.app[3].stopTime = 72ms
*.host1.app[3].display-name = "type2_6"
*.host1.app[3].destPort = 1000
*.host1.app[4].typename = "UdpBasicApp"
*.host1.app[4].destAddresses = "host13"
*.host1.app[4].source.packetNameFormat = "%M-%m-%c"
*.host1.app[4].source.displayStringTextFormat = "sent %p pk (%l)"
*.host1.app[4].messageLength = 15B
*.host1.app[4].sendInterval = 1ms
*.host1.app[4].startTime = 75ms
*.host1.app[4].stopTime = 83ms
*.host1.app[4].display-name = "type2_6"
*.host1.app[4].destPort = 1000
*.host1.app[5].typename = "UdpBasicApp"
*.host1.app[5].destAddresses = "host13"
*.host1.app[5].source.packetNameFormat = "%M-%m-%c"
*.host1.app[5].source.displayStringTextFormat = "sent %p pk (%l)"
*.host1.app[5].messageLength = 15B
*.host1.app[5].sendInterval = 1ms
*.host1.app[5].startTime = 94ms
*.host1.app[5].stopTime = 95ms
*.host1.app[5].display-name = "type2_6"
*.host1.app[5].destPort = 1000
*.host1.app[6].typename = "UdpBasicApp"
*.host1.app[6].destAddresses = "host13"
*.host1.app[6].source.packetNameFormat = "%M-%m-%c"
*.host1.app[6].source.displayStringTextFormat = "sent %p pk (%l)"
*.host1.app[6].messageLength = 15B
*.host1.app[6].sendInterval = 1ms
*.host1.app[6].startTime = 96ms
*.host1.app[6].stopTime = 98ms
*.host1.app[6].display-name = "type2_6"
*.host1.app[6].destPort = 1000
*.host2.numApps = 3
*.host2.app[0].typename = "UdpSinkApp"
*.host2.app[0].io.localPort = 1000
*.host2.app[1].typename = "UdpSourceApp"
*.host2.app[1].io.destAddress = "host14"
*.host2.app[1].source.packetNameFormat = "%M-%m-%c"
*.host2.app[1].source.displayStringTextFormat = "sent %p pk (%l)"
*.host2.app[1].source.packetLength = 21B
*.host2.app[1].source.productionInterval = 1ms
*.host2.app[1].display-name = "type1_2"
*.host2.app[1].io.destPort = 1000
*.host2.app[2].typename = "UdpSinkApp"
*.host2.app[2].io.localPort = 1001
*.host3.numApps = 17
*.host3.app[0].typename = "UdpBasicApp"
*.host3.app[0].destAddresses = "host7"
*.host3.app[0].source.packetNameFormat = "%M-%m-%c"
*.host3.app[0].source.displayStringTextFormat = "sent %p pk (%l)"
*.host3.app[0].messageLength = 15B
*.host3.app[0].sendInterval = 1ms
*.host3.app[0].startTime = 22ms
*.host3.app[0].stopTime = 25ms
*.host3.app[0].display-name = "type2_4"
*.host3.app[0].destPort = 1000
*.host3.app[1].typename = "UdpBasicApp"
*.host3.app[1].destAddresses = "host7"
*.host3.app[1].source.packetNameFormat = "%M-%m-%c"
*.host3.app[1].source.displayStringTextFormat = "sent %p pk (%l)"
*.host3.app[1].messageLength = 15B
*.host3.app[1].sendInterval = 1ms
*.host3.app[1].startTime = 32ms
*.host3.app[1].stopTime = 36ms
*.host3.app[1].display-name = "type2_4"
*.host3.app[1].destPort = 1000
*.host3.app[2].typename = "UdpBasicApp"
*.host3.app[2].destAddresses = "host7"
*.host3.app[2].source.packetNameFormat = "%M-%m-%c"
*.host3.app[2].source.displayStringTextFormat = "sent %p pk (%l)"
*.host3.app[2].messageLength = 15B
*.host3.app[2].sendInterval = 1ms
*.host3.app[2].startTime = 39ms
*.host3.app[2].stopTime = 51ms
*.host3.app[2].display-name = "type2_4"
*.host3.app[2].destPort = 1000
*.host3.app[3].typename = "UdpBasicApp"
*.host3.app[3].destAddresses = "host7"
*.host3.app[3].source.packetNameFormat = "%M-%m-%c"
*.host3.app[3].source.displayStringTextFormat = "sent %p pk (%l)"
*.host3.app[3].messageLength = 15B
*.host3.app[3].sendInterval = 1ms
*.host3.app[3].startTime = 52ms
*.host3.app[3].stopTime = 56ms
*.host3.app[3].display-name = "type2_4"
*.host3.app[3].destPort = 1000
*.host3.app[4].typename = "UdpBasicApp"
*.host3.app[4].destAddresses = "host7"
*.host3.app[4].source.packetNameFormat = "%M-%m-%c"
*.host3.app[4].source.displayStringTextFormat = "sent %p pk (%l)"
*.host3.app[4].messageLength = 15B
*.host3.app[4].sendInterval = 1ms
*.host3.app[4].startTime = 58ms
*.host3.app[4].stopTime = 61ms
*.host3.app[4].display-name = "type2_4"
*.host3.app[4].destPort = 1000
*.host3.app[5].typename = "UdpBasicApp"
*.host3.app[5].destAddresses = "host7"
*.host3.app[5].source.packetNameFormat = "%M-%m-%c"
*.host3.app[5].source.displayStringTextFormat = "sent %p pk (%l)"
*.host3.app[5].messageLength = 15B
*.host3.app[5].sendInterval = 1ms
*.host3.app[5].startTime = 64ms
*.host3.app[5].stopTime = 87ms
*.host3.app[5].display-name = "type2_4"
*.host3.app[5].destPort = 1000
*.host3.app[6].typename = "UdpBasicApp"
*.host3.app[6].destAddresses = "host7"
*.host3.app[6].source.packetNameFormat = "%M-%m-%c"
*.host3.app[6].source.displayStringTextFormat = "sent %p pk (%l)"
*.host3.app[6].messageLength = 15B
*.host3.app[6].sendInterval = 1ms
*.host3.app[6].startTime = 88ms
*.host3.app[6].stopTime = 100ms
*.host3.app[6].display-name = "type2_4"
*.host3.app[6].destPort = 1000
*.host3.app[7].typename = "UdpBasicApp"
*.host3.app[7].destAddresses = "host5"
*.host3.app[7].source.packetNameFormat = "%M-%m-%c"
*.host3.app[7].source.displayStringTextFormat = "sent %p pk (%l)"
*.host3.app[7].messageLength = 22B
*.host3.app[7].sendInterval = 1ms
*.host3.app[7].startTime = 14ms
*.host3.app[7].stopTime = 20ms
*.host3.app[7].display-name = "type2_5"
*.host3.app[7].destPort = 1000
*.host3.app[8].typename = "UdpBasicApp"
*.host3.app[8].destAddresses = "host5"
*.host3.app[8].source.packetNameFormat = "%M-%m-%c"
*.host3.app[8].source.displayStringTextFormat = "sent %p pk (%l)"
*.host3.app[8].messageLength = 22B
*.host3.app[8].sendInterval = 1ms
*.host3.app[8].startTime = 25ms
*.host3.app[8].stopTime = 37ms
*.host3.app[8].display-name = "type2_5"
*.host3.app[8].destPort = 1000
*.host3.app[9].typename = "UdpBasicApp"
*.host3.app[9].destAddresses = "host5"
*.host3.app[9].source.packetNameFormat = "%M-%m-%c"
*.host3.app[9].source.displayStringTextFormat = "sent %p pk (%l)"
*.host3.app[9].messageLength = 22B
*.host3.app[9].sendInterval = 1ms
*.host3.app[9].startTime = 59ms
*.host3.app[9].stopTime = 72ms
*.host3.app[9].display-name = "type2_5"
*.host3.app[9].destPort = 1000
*.host3.app[10].typename = "UdpBasicApp"
*.host3.app[10].destAddresses = "host5"
*.host3.app[10].source.packetNameFormat = "%M-%m-%c"
*.host3.app[10].source.displayStringTextFormat = "sent %p pk (%l)"
*.host3.app[10].messageLength = 22B
*.host3.app[10].sendInterval = 1ms
*.host3.app[10].startTime = 74ms
*.host3.app[10].stopTime = 100ms
*.host3.app[10].display-name = "type2_5"
*.host3.app[10].destPort = 1000
*.host3.app[11].typename = "UdpBasicApp"
*.host3.app[11].destAddresses = "host9"
*.host3.app[11].source.packetNameFormat = "%M-%m-%c"
*.host3.app[11].source.displayStringTextFormat = "sent %p pk (%l)"
*.host3.app[11].messageLength = 12B
*.host3.app[11].sendInterval = 1ms
*.host3.app[11].startTime = 3ms
*.host3.app[11].stopTime = 21ms
*.host3.app[11].display-name = "type2_7"
*.host3.app[11].destPort = 1000
*.host3.app[12].typename = "UdpBasicApp"
*.host3.app[12].destAddresses = "host9"
*.host3.app[12].source.packetNameFormat = "%M-%m-%c"
*.host3.app[12].source.displayStringTextFormat = "sent %p pk (%l)"
*.host3.app[12].messageLength = 12B
*.host3.app[12].sendInterval = 1ms
*.host3.app[12].startTime = 28ms
*.host3.app[12].stopTime = 34ms
*.host3.app[12].display-name = "type2_7"
*.host3.app[12].destPort = 1000
*.host3.app[13].typename = "UdpBasicApp"
*.host3.app[13].destAddresses = "host9"
*.host3.app[13].source.packetNameFormat = "%M-%m-%c"
*.host3.app[13].source.displayStringTextFormat = "sent %p pk (%l)"
*.host3.app[13].messageLength = 12B
*.host3.app[13].sendInterval = 1ms
*.host3.app[13].startTime = 44ms
*.host3.app[13].stopTime = 46ms
*.host3.app[13].display-name = "type2_7"
*.host3.app[13].destPort = 1000
*.host3.app[14].typename = "UdpBasicApp"
*.host3.app[14].destAddresses = "host9"
*.host3.app[14].source.packetNameFormat = "%M-%m-%c"
*.host3.app[14].source.displayStringTextFormat = "sent %p pk (%l)"
*.host3.app[14].messageLength = 12B
*.host3.app[14].sendInterval = 1ms
*.host3.app[14].startTime = 52ms
*.host3.app[14].stopTime = 71ms
*.host3.app[14].display-name = "type2_7"
*.host3.app[14].destPort = 1000
*.host3.app[15].typename = "UdpBasicApp"
*.host3.app[15].destAddresses = "host9"
*.host3.app[15].source.packetNameFormat = "%M-%m-%c"
*.host3.app[15].source.displayStringTextFormat = "sent %p pk (%l)"
*.host3.app[15].messageLength = 12B
*.host3.app[15].sendInterval = 1ms
*.host3.app[15].startTime = 72ms
*.host3.app[15].stopTime = 75ms
*.host3.app[15].display-name = "type2_7"
*.host3.app[15].destPort = 1000
*.host3.app[16].typename = "UdpBasicApp"
*.host3.app[16].destAddresses = "host9"
*.host3.app[16].source.packetNameFormat = "%M-%m-%c"
*.host3.app[16].source.displayStringTextFormat = "sent %p pk (%l)"
*.host3.app[16].messageLength = 12B
*.host3.app[16].sendInterval = 1ms
*.host3.app[16].startTime = 85ms
*.host3.app[16].stopTime = 100ms
*.host3.app[16].display-name = "type2_7"
*.host3.app[16].destPort = 1000
*.host4.numApps = 0
*.host5.numApps = 1
*.host5.app[0].typename = "UdpSinkApp"
*.host5.app[0].io.localPort = 1000
*.host6.numApps = 1
*.host6.app[0].typename = "UdpSinkApp"
*.host6.app[0].io.localPort = 1000
*.host7.numApps = 5
*.host7.app[0].typename = "UdpBasicApp"
*.host7.app[0].destAddresses = "host0"
*.host7.app[0].source.packetNameFormat = "%M-%m-%c"
*.host7.app[0].source.displayStringTextFormat = "sent %p pk (%l)"
*.host7.app[0].messageLength = 17B
*.host7.app[0].sendInterval = 1ms
*.host7.app[0].startTime = 5ms
*.host7.app[0].stopTime = 31ms
*.host7.app[0].display-name = "type2_0"
*.host7.app[0].destPort = 1001
*.host7.app[1].typename = "UdpBasicApp"
*.host7.app[1].destAddresses = "host0"
*.host7.app[1].source.packetNameFormat = "%M-%m-%c"
*.host7.app[1].source.displayStringTextFormat = "sent %p pk (%l)"
*.host7.app[1].messageLength = 17B
*.host7.app[1].sendInterval = 1ms
*.host7.app[1].startTime = 33ms
*.host7.app[1].stopTime = 34ms
*.host7.app[1].display-name = "type2_0"
*.host7.app[1].destPort = 1001
*.host7.app[2].typename = "UdpBasicApp"
*.host7.app[2].destAddresses = "host0"
*.host7.app[2].source.packetNameFormat = "%M-%m-%c"
*.host7.app[2].source.displayStringTextFormat = "sent %p pk (%l)"
*.host7.app[2].messageLength = 17B
*.host7.app[2].sendInterval = 1ms
*.host7.app[2].startTime = 48ms
*.host7.app[2].stopTime = 52ms
*.host7.app[2].display-name = "type2_0"
*.host7.app[2].destPort = 1001
*.host7.app[3].typename = "UdpBasicApp"
*.host7.app[3].destAddresses = "host0"
*.host7.app[3].source.packetNameFormat = "%M-%m-%c"
*.host7.app[3].source.displayStringTextFormat = "sent %p pk (%l)"
*.host7.app[3].messageLength = 17B
*.host7.app[3].sendInterval = 1ms
*.host7.app[3].startTime = 70ms
*.host7.app[3].stopTime = 97ms
*.host7.app[3].display-name = "type2_0"
*.host7.app[3].destPort = 1001
*.host7.app[4].typename = "UdpSinkApp"
*.host7.app[4].io.localPort = 1000
*.host8.numApps = 0
*.host9.numApps = 1
*.host9.app[0].typename = "UdpSinkApp"
*.host9.app[0].io.localPort = 1000
*.host10.numApps = 2
*.host10.app[0].typename = "UdpSourceApp"
*.host10.app[0].io.destAddress = "host2"
*.host10.app[0].source.packetNameFormat = "%M-%m-%c"
*.host10.app[0].source.displayStringTextFormat = "sent %p pk (%l)"
*.host10.app[0].source.packetLength = 16B
*.host10.app[0].source.productionInterval = 1ms
*.host10.app[0].display-name = "type1_0"
*.host10.app[0].io.destPort = 1000
*.host10.app[1].typename = "UdpSourceApp"
*.host10.app[1].io.destAddress = "host0"
*.host10.app[1].source.packetNameFormat = "%M-%m-%c"
*.host10.app[1].source.displayStringTextFormat = "sent %p pk (%l)"
*.host10.app[1].source.packetLength = 13B
*.host10.app[1].source.productionInterval = 1ms
*.host10.app[1].display-name = "type1_1"
*.host10.app[1].io.destPort = 1000
*.host11.numApps = 0
*.host12.numApps = 0
*.host13.numApps = 15
*.host13.app[0].typename = "UdpBasicApp"
*.host13.app[0].destAddresses = "host6"
*.host13.app[0].source.packetNameFormat = "%M-%m-%c"
*.host13.app[0].source.displayStringTextFormat = "sent %p pk (%l)"
*.host13.app[0].messageLength = 21B
*.host13.app[0].sendInterval = 1ms
*.host13.app[0].startTime = 0ms
*.host13.app[0].stopTime = 6ms
*.host13.app[0].display-name = "type2_1"
*.host13.app[0].destPort = 1000
*.host13.app[1].typename = "UdpBasicApp"
*.host13.app[1].destAddresses = "host6"
*.host13.app[1].source.packetNameFormat = "%M-%m-%c"
*.host13.app[1].source.displayStringTextFormat = "sent %p pk (%l)"
*.host13.app[1].messageLength = 21B
*.host13.app[1].sendInterval = 1ms
*.host13.app[1].startTime = 9ms
*.host13.app[1].stopTime = 10ms
*.host13.app[1].display-name = "type2_1"
*.host13.app[1].destPort = 1000
*.host13.app[2].typename = "UdpBasicApp"
*.host13.app[2].destAddresses = "host6"
*.host13.app[2].source.packetNameFormat = "%M-%m-%c"
*.host13.app[2].source.displayStringTextFormat = "sent %p pk (%l)"
*.host13.app[2].messageLength = 21B
*.host13.app[2].sendInterval = 1ms
*.host13.app[2].startTime = 33ms
*.host13.app[2].stopTime = 37ms
*.host13.app[2].display-name = "type2_1"
*.host13.app[2].destPort = 1000
*.host13.app[3].typename = "UdpBasicApp"
*.host13.app[3].destAddresses = "host6"
*.host13.app[3].source.packetNameFormat = "%M-%m-%c"
*.host13.app[3].source.displayStringTextFormat = "sent %p pk (%l)"
*.host13.app[3].messageLength = 21B
*.host13.app[3].sendInterval = 1ms
*.host13.app[3].startTime = 41ms
*.host13.app[3].stopTime = 44ms
*.host13.app[3].display-name = "type2_1"
*.host13.app[3].destPort = 1000
*.host13.app[4].typename = "UdpBasicApp"
*.host13.app[4].destAddresses = "host6"
*.host13.app[4].source.packetNameFormat = "%M-%m-%c"
*.host13.app[4].source.displayStringTextFormat = "sent %p pk (%l)"
*.host13.app[4].messageLength = 21B
*.host13.app[4].sendInterval = 1ms
*.host13.app[4].startTime = 58ms
*.host13.app[4].stopTime = 70ms
*.host13.app[4].display-name = "type2_1"
*.host13.app[4].destPort = 1000
*.host13.app[5].typename = "UdpBasicApp"
*.host13.app[5].destAddresses = "host6"
*.host13.app[5].source.packetNameFormat = "%M-%m-%c"
*.host13.app[5].source.displayStringTextFormat = "sent %p pk (%l)"
*.host13.app[5].messageLength = 21B
*.host13.app[5].sendInterval = 1ms
*.host13.app[5].startTime = 84ms
*.host13.app[5].stopTime = 97ms
*.host13.app[5].display-name = "type2_1"
*.host13.app[5].destPort = 1000
*.host13.app[6].typename = "UdpBasicApp"
*.host13.app[6].destAddresses = "host1"
*.host13.app[6].source.packetNameFormat = "%M-%m-%c"
*.host13.app[6].source.displayStringTextFormat = "sent %p pk (%l)"
*.host13.app[6].messageLength = 15B
*.host13.app[6].sendInterval = 1ms
*.host13.app[6].startTime = 7ms
*.host13.app[6].stopTime = 11ms
*.host13.app[6].display-name = "type2_2"
*.host13.app[6].destPort = 1000
*.host13.app[7].typename = "UdpBasicApp"
*.host13.app[7].destAddresses = "host1"
*.host13.app[7].source.packetNameFormat = "%M-%m-%c"
*.host13.app[7].source.displayStringTextFormat = "sent %p pk (%l)"
*.host13.app[7].messageLength = 15B
*.host13.app[7].sendInterval = 1ms
*.host13.app[7].startTime = 16ms
*.host13.app[7].stopTime = 20ms
*.host13.app[7].display-name = "type2_2"
*.host13.app[7].destPort = 1000
*.host13.app[8].typename = "UdpBasicApp"
*.host13.app[8].destAddresses = "host1"
*.host13.app[8].source.packetNameFormat = "%M-%m-%c"
*.host13.app[8].source.displayStringTextFormat = "sent %p pk (%l)"
*.host13.app[8].messageLength = 15B
*.host13.app[8].sendInterval = 1ms
*.host13.app[8].startTime = 25ms
*.host13.app[8].stopTime = 29ms
*.host13.app[8].display-name = "type2_2"
*.host13.app[8].destPort = 1000
*.host13.app[9].typename = "UdpBasicApp"
*.host13.app[9].destAddresses = "host1"
*.host13.app[9].source.packetNameFormat = "%M-%m-%c"
*.host13.app[9].source.displayStringTextFormat = "sent %p pk (%l)"
*.host13.app[9].messageLength = 15B
*.host13.app[9].sendInterval = 1ms
*.host13.app[9].startTime = 37ms
*.host13.app[9].stopTime = 41ms
*.host13.app[9].display-name = "type2_2"
*.host13.app[9].destPort = 1000
*.host13.app[10].typename = "UdpBasicApp"
*.host13.app[10].destAddresses = "host1"
*.host13.app[10].source.packetNameFormat = "%M-%m-%c"
*.host13.app[10].source.displayStringTextFormat = "sent %p pk (%l)"
*.host13.app[10].messageLength = 15B
*.host13.app[10].sendInterval = 1ms
*.host13.app[10].startTime = 49ms
*.host13.app[10].stopTime = 55ms
*.host13.app[10].display-name = "type2_2"
*.host13.app[10].destPort = 1000
*.host13.app[11].typename = "UdpBasicApp"
*.host13.app[11].destAddresses = "host1"
*.host13.app[11].source.packetNameFormat = "%M-%m-%c"
*.host13.app[11].source.displayStringTextFormat = "sent %p pk (%l)"
*.host13.app[11].messageLength = 15B
*.host13.app[11].sendInterval = 1ms
*.host13.app[11].startTime = 65ms
*.host13.app[11].stopTime = 68ms
*.host13.app[11].display-name = "type2_2"
*.host13.app[11].destPort = 1000
*.host13.app[12].typename = "UdpBasicApp"
*.host13.app[12].destAddresses = "host1"
*.host13.app[12].source.packetNameFormat = "%M-%m-%c"
*.host13.app[12].source.displayStringTextFormat = "sent %p pk (%l)"
*.host13.app[12].messageLength = 15B
*.host13.app[12].sendInterval = 1ms
*.host13.app[12].startTime = 72ms
*.host13.app[12].stopTime = 84ms
*.host13.app[12].display-name = "type2_2"
*.host13.app[12].destPort = 1000
*.host13.app[13].typename = "UdpBasicApp"
*.host13.app[13].destAddresses = "host1"
*.host13.app[13].source.packetNameFormat = "%M-%m-%c"
*.host13.app[13].source.displayStringTextFormat = "sent %p pk (%l)"